@<TRIPOS>MOLECULE
mol
37500 30000
SMALL
USER_CHARGES


@<TRIPOS>ATOM
1 C 4.322127308658068 69.34806486140297 53.05678483563739 C 0.0 **** -0.24
2 H 4.719577182270427 69.08007357026963 54.03549349005925 H 0.0 **** 0.06
3 H 3.3448071354532374 69.81505514970226 53.17682530130756 H 0.0 **** 0.06
4 H 4.224014323817926 68.45023723270111 52.44681125979065 H 0.0 **** 0.06
5 H 5.001420717167406 70.04706200571923 52.56851455547516 H 0.0 **** 0.06
6 C 19.469755915484555 87.18121856837644 93.61576054151897 C 0.0 **** -0.24
7 H 19.300668010623866 86.18322017052736 93.2120009097082 H 0.0 **** 0.06
8 H 19.718074235895955 87.10844826335355 94.67518677983529 H 0.0 **** 0.06
9 H 18.566190739932438 87.77952593185574 93.49511349210545 H 0.0 **** 0.06
10 H 20.293515901426545 87.65449588641093 93.08067877220697 H 0.0 **** 0.06
11 C 67.95358710474503 42.32842494139419 50.709458227873455 C 0.0 **** -0.24
12 H 67.98918798521407 41.363736592929826 51.21531526221429 H 0.0 **** 0.06
13 H 68.61993316174022 42.310317330271175 49.846123109490236 H 0.0 **** 0.06
14 H 68.27288274219498 43.111304078309274 51.39741094722285 H 0.0 **** 0.06
15 H 66.93447434724064 42.52782934893585 50.378534602418 H 0.0 **** 0.06
16 C 67.65277117235823 63.12019037818885 4.467937554956739 C 0.0 **** -0.24
17 H 68.37238149249495 62.307660987076645 4.368346604413848 H 0.0 **** 0.06
18 H 67.99698614880833 63.98265541710364 3.8969914033139386 H 0.0 **** 0.06
19 H 67.55717355995264 63.39341981133819 5.519252549225685 H 0.0 **** 0.06
20 H 66.68399828025701 62.79541734233163 4.0875022990030985 H 0.0 **** 0.06
21 C 103.86696149101658 67.26717516359213 103.78354598859812 C 0.0 **** -0.24
22 H 103.05708704164971 66.68457158101955 103.34481735408414 H 0.0 **** 0.06
23 H 103.66179451098645 68.33036864356865 103.65412579031323 H 0.0 **** 0.06
24 H 104.80467804624598 67.0150407320703 103.28951439558267 H 0.0 **** 0.06
25 H 103.94329528672745 67.03912799092049 104.84664900510859 H 0.0 **** 0.06
26 C 22.38985689422131 97.46758471649193 19.700772352694486 C 0.0 **** -0.24
27 H 22.038540587407653 98.36690105936245 20.208441990243898 H 0.0 **** 0.06
28 H 22.260927182455788 96.60680299634222 20.357320430850024 H 0.0 **** 0.06
29 H 23.444074757419457 97.58046517110245 19.450982442196818 H 0.0 **** 0.06
30 H 21.81343781510722 97.31913343086373 18.788141211922607 H 0.0 **** 0.06
31 C 64.74933591826232 15.135767860368674 104.87509118892771 C 0.0 **** -0.24
32 H 65.53385035269355 14.6820397555515 105.48132244932404 H 0.0 **** 0.06
33 H 64.35899810682832 16.015900147394746 105.38576419771366 H 0.0 **** 0.06
34 H 63.94539881018394 14.415984498077592 104.72323470709358 H 0.0 **** 0.06
35 H 65.16198941869595 15.429106457208377 103.90925010108091 H 0.0 **** 0.06
36 C 45.87739231924168 88.05067314274743 56.19080025876483 C 0.0 **** -0.24
37 H 46.77860712611323 87.67590830827001 55.705279306134074 H 0.0 **** 0.06
38 H 45.62846832709914 87.41131262808378 57.0377715500681 H 0.0 **** 0.06
39 H 45.05261547579666 88.04745669968864 55.47753084628459 H 0.0 **** 0.06
40 H 46.05052022087666 89.06856550330477 56.541107696435404 H 0.0 **** 0.06
41 C 52.670772435211724 4.51045830185474 63.89578693508124 C 0.0 **** -0.24
42 H 52.92193488446293 3.451241179626166 63.93179805390573 H 0.0 **** 0.06
43 H 53.586150722272826 5.10249293098191 63.88995604595551 H 0.0 **** 0.06
44 H 52.073335115192236 4.772299997079372 64.7695329002297 H 0.0 **** 0.06
45 H 52.0990948630634 4.71684401351078 62.9907283148112 H 0.0 **** 0.06
46 C 75.71383648200754 73.90896118738368 66.81480595967255 C 0.0 **** -0.24
47 H 75.65406509450563 73.0581939615393 66.13564034728483 H 0.0 **** 0.06
48 H 76.24279299808106 73.61314670885784 67.72086953172695 H 0.0 **** 0.06
49 H 74.70742171230026 74.2386797333665 67.071997251243 H 0.0 **** 0.06
50 H 76.25026597391195 74.72376037960052 66.32966783036989 H 0.0 **** 0.06
51 C 53.66615958490744 76.86438668101269 64.66159926536073 C 0.0 **** -0.24
52 H 53.12868721549188 76.72326909807254 63.723843607529545 H 0.0 **** 0.06
53 H 53.10980144469483 76.39486034743382 65.47245436710602 H 0.0 **** 0.06
54 H 53.77133423489405 77.93148087690847 64.86184351341535 H 0.0 **** 0.06
55 H 54.65409906297778 76.41009614416672 64.58584249784332 H 0.0 **** 0.06
56 C 4.641558430711953 12.72156621153178 46.935647096040164 C 0.0 **** -0.24
57 H 5.160565264183132 12.024317810296324 46.27698934390864 H 0.0 **** 0.06
58 H 3.853730049937541 13.228425250373618 46.378417568945125 H 0.0 **** 0.06
59 H 5.350474974105833 13.456756382923032 47.3155708999531 H 0.0 **** 0.06
60 H 4.203304903230082 12.173480233303835 47.76965668355858 H 0.0 **** 0.06
61 C 40.90978188469921 64.86205855138525 25.764227992486184 C 0.0 **** -0.24
62 H 40.866845811542724 64.6894596542424 26.83970672987472 H 0.0 **** 0.06
63 H 40.634557263774475 65.8942227799802 25.550991699453448 H 0.0 **** 0.06
64 H 40.21619965084444 64.18863242237845 25.26117601106832 H 0.0 **** 0.06
65 H 41.92278066713322 64.67390340344957 25.407559329291274 H 0.0 **** 0.06
66 C 75.60392253185006 59.705235479030286 41.18742157906424 C 0.0 **** -0.24
67 H 74.5799972315682 59.53866158994233 41.52295182415432 H 0.0 **** 0.06
68 H 75.79363024036581 60.77729217005713 41.120526730167235 H 0.0 **** 0.06
69 H 75.7438016977373 59.24874206128995 40.20743383371909 H 0.0 **** 0.06
70 H 76.29619534230505 59.25759180369773 41.90016056239918 H 0.0 **** 0.06
71 C 22.202796789718775 26.226845598741626 91.54879880813417 C 0.0 **** -0.24
72 H 21.137731210008894 26.386128096616524 91.71754949028133 H 0.0 **** 0.06
73 H 22.606428755296406 27.057700876586793 90.97015458980164 H 0.0 **** 0.06
74 H 22.34894655413825 25.296342279219765 91.0004957960133 H 0.0 **** 0.06
75 H 22.717582976990855 26.168335526316447 92.50769407431906 H 0.0 **** 0.06
76 C 65.43993751034122 61.30438685049208 79.87959709643232 C 0.0 **** -0.24
77 H 64.69385920635824 61.47845597921284 79.10338477481415 H 0.0 **** 0.06
78 H 64.99682884240221 60.71919174020098 80.68523086332061 H 0.0 **** 0.06
79 H 65.78521475626857 62.26139247950235 80.27217231337349 H 0.0 **** 0.06
80 H 66.2837048524865 60.75976754899142 79.45575882118581 H 0.0 **** 0.06
81 C 60.058711709196096 8.811554753593214 30.851122282948438 C 0.0 **** -0.24
82 H 59.33615014563093 8.318152303045053 31.502593927392468 H 0.0 **** 0.06
83 H 61.06816147997896 8.605481875095165 31.206201832635657 H 0.0 **** 0.06
84 H 59.88027683641638 9.886766753651273 30.861777652061846 H 0.0 **** 0.06
85 H 59.94616789576727 8.434813321480249 29.834425089686903 H 0.0 **** 0.06
86 C 41.23071008671799 79.39559816203592 72.7128984874573 C 0.0 **** -0.24
87 H 41.04793129918757 79.59649434684533 71.65759474468621 H 0.0 **** 0.06
88 H 42.30461417261576 79.32568033010867 72.88819807488514 H 0.0 **** 0.06
89 H 40.75415373754331 78.45505925203238 72.99043953157638 H 0.0 **** 0.06
90 H 40.81520699078364 80.20413219280346 73.31432536334128 H 0.0 **** 0.06
91 C 20.59587573328787 45.62729395877608 75.7886015675362 C 0.0 **** -0.24
92 H 21.372544904398353 46.391130904769796 75.82941236318584 H 0.0 **** 0.06
93 H 20.52385736231281 45.23676385489995 74.77257937800294 H 0.0 **** 0.06
94 H 19.640756662535182 46.064598616088006 76.07831961774471 H 0.0 **** 0.06
95 H 20.846827738538593 44.81654650193087 76.47169744239488 H 0.0 **** 0.06
96 C 20.698345188476093 25.64421113258473 12.429118899570838 C 0.0 **** -0.24
97 H 21.496507333746546 26.382489787200257 12.34196788652234 H 0.0 **** 0.06
98 H 19.818841907182467 26.111717087337894 12.872038259507917 H 0.0 **** 0.06
99 H 21.031907204750375 24.82196672590959 13.062370761906806 H 0.0 **** 0.06
100 H 20.448724040044276 25.262650882843133 11.439531411986223 H 0.0 **** 0.06
101 C 89.99429268247414 91.21324747819 38.19202108485666 C 0.0 **** -0.24
102 H 89.01238832018012 91.660482870728 38.34312917045247 H 0.0 **** 0.06
103 H 90.14314917414058 91.01263293184542 37.131259136519645 H 0.0 **** 0.06
104 H 90.0573711987791 90.27948764235583 38.751747018284675 H 0.0 **** 0.06
105 H 90.76348850346315 91.90039875344013 38.54404705584312 H 0.0 **** 0.06
106 C 94.83325814294463 11.301368482533604 104.6432306286776 C 0.0 **** -0.24
107 H 93.94586769721167 10.8683181905796 104.18022079811632 H 0.0 **** 0.06
108 H 94.55713353922775 11.772850150867555 105.58642553558042 H 0.0 **** 0.06
109 H 95.26363402089311 12.046463715052184 103.9756147403474 H 0.0 **** 0.06
110 H 95.56545871602071 10.51506422288513 104.83002567355373 H 0.0 **** 0.06
111 C 83.47000849812954 10.157204455368515 103.0813665084381 C 0.0 **** -0.24
112 H 82.55989136043124 10.61037611284354 103.47475137440779 H 0.0 **** 0.06
113 H 83.26961780972388 9.121173772496974 102.80804729491337 H 0.0 **** 0.06
114 H 84.24972935371915 10.188397585535512 103.8422447856253 H 0.0 **** 0.06
115 H 83.7986753700209 10.708347701842058 102.1999405998383 H 0.0 **** 0.06
116 C 90.4867483378801 79.38231187794628 17.02621819006336 C 0.0 **** -0.24
117 H 91.54323819955638 79.1224442401591 16.96070966757145 H 0.0 **** 0.06
118 H 90.21529771711312 79.53912510853405 18.07116540372192 H 0.0 **** 0.06
119 H 89.88732479694079 78.5710380876103 16.613345769068587 H 0.0 **** 0.06
120 H 90.30081460041163 80.29560518584998 16.46184923551354 H 0.0 **** 0.06
121 C 44.44741979520626 86.63355593621714 30.801895960267757 C 0.0 **** -0.24
122 H 43.892223223975066 85.8855625978747 31.36807891127924 H 0.0 **** 0.06
123 H 44.2666663274631 87.6203360557696 31.229305161163722 H 0.0 **** 0.06
124 H 44.116868343625015 86.62170343278694 29.76287300810415 H 0.0 **** 0.06
125 H 45.51279944172052 86.4073094763171 30.84680860421699 H 0.0 **** 0.06
126 C 53.54665285386173 80.72958710299002 0.7630723563104311 C 0.0 **** -0.24
127 H 53.352399971593854 81.43558252592169 1.5708295602153726 H 0.0 **** 0.06
128 H 54.09406430799069 81.23251251517081 -0.03461440204962685 H 0.0 **** 0.06
129 H 52.601031601888735 80.35296791785396 0.37371930248340846 H 0.0 **** 0.06
130 H 54.140994389974935 79.89797907693188 1.143349484378561 H 0.0 **** 0.06
131 C 92.12739259194083 50.4728687193584 12.573608029693276 C 0.0 **** -0.24
132 H 91.44024779605192 49.83327632668811 12.019418526244067 H 0.0 **** 0.06
133 H 92.67160960056617 51.11048349258585 11.876626206966307 H 0.0 **** 0.06
134 H 92.83329047689472 49.85367475651013 13.12743870795316 H 0.0 **** 0.06
135 H 91.56378385478004 51.093463687440064 13.270439057747922 H 0.0 **** 0.06
136 C 57.647574085442024 88.96109757015435 76.75617605155179 C 0.0 **** -0.24
137 H 57.8989074355006 90.0018203889438 76.95643801361271 H 0.0 **** 0.06
138 H 57.58385438622851 88.41465310329997 77.69810053647538 H 0.0 **** 0.06
139 H 58.41832336607806 88.51486544501248 76.12831079027842 H 0.0 **** 0.06
140 H 56.68749753963706 88.91198388728853 76.24281629555745 H 0.0 **** 0.06
141 C 39.99577894457711 75.51639080967996 112.2821306972234 C 0.0 **** -0.24
142 H 39.82379363964654 74.98137692637943 113.21609086186979 H 0.0 **** 0.06
143 H 39.2110817757783 76.26004539683143 112.13984700234117 H 0.0 **** 0.06
144 H 39.98434438585829 74.81143411661321 111.45194361015749 H 0.0 **** 0.06
145 H 40.965207132019145 76.01421743503545 112.32264114072419 H 0.0 **** 0.06
146 C 107.14393671529123 3.268046650262818 96.06531857304097 C 0.0 **** -0.24
147 H 106.85944245445076 2.7452850040216106 96.97826142042209 H 0.0 **** 0.06
148 H 107.31616402137436 4.32156625482429 96.28952090503847 H 0.0 **** 0.06
149 H 106.34386575177778 3.1789753634237456 95.33095483107999 H 0.0 **** 0.06
150 H 108.05649901020352 2.827609911583579 95.66463181064725 H 0.0 **** 0.06
151 C 24.44506889258804 48.146385293941734 20.17652886322861 C 0.0 **** -0.24
152 H 23.725080597737275 47.411643260832136 20.53548893321164 H 0.0 **** 0.06
153 H 24.55074617251489 48.0530457063596 19.094838737797318 H 0.0 **** 0.06
154 H 25.410252106932575 47.97181457942308 20.652132507649185 H 0.0 **** 0.06
155 H 24.09466327169534 49.148866807609394 20.421995968784586 H 0.0 **** 0.06
156 C 85.42481809397174 91.76911160878828 57.55560601010305 C 0.0 **** -0.24
157 H 85.00884661603016 92.72980475937914 57.25363625071319 H 0.0 **** 0.06
158 H 86.46087195670913 91.90408329891957 57.86769009844421 H 0.0 **** 0.06
159 H 85.38469335626638 91.07536666948374 56.715963025020564 H 0.0 **** 0.06
160 H 84.84437986392794 91.36781244941969 58.386311030455694 H 0.0 **** 0.06
161 C 0.971055720550936 24.189975526726414 96.4373913757988 C 0.0 **** -0.24
162 H 0.170057839481359 23.913875034595264 95.75275481909966 H 0.0 **** 0.06
163 H 1.0242441804497844 25.276239232539893 96.51620501872546 H 0.0 **** 0.06
164 H 1.9189886396565612 23.8053304964115 96.06013839232156 H 0.0 **** 0.06
165 H 0.7724737814202456 23.76380624974243 97.4209143118905 H 0.0 **** 0.06
166 C 39.823252061588505 9.220692172587874 100.0558395325763 C 0.0 **** -0.24
167 H 39.20758789432293 9.094592296796066 100.94712675573459 H 0.0 **** 0.06
168 H 39.197282658875395 9.127261201908723 99.16778693684105 H 0.0 **** 0.06
169 H 40.597183245504624 8.454563743484727 100.03764509667081 H 0.0 **** 0.06
170 H 40.28735920939988 10.206283397857419 100.07183395461107 H 0.0 **** 0.06
171 C 0.9149358716648948 99.73348076982637 27.94722753675643 C 0.0 **** -0.24
172 H 0.02291303346108009 99.25900256332218 27.538293464996002 H 0.0 **** 0.06
173 H 1.8025515431088195 99.28716090764706 27.49864933787839 H 0.0 **** 0.06
174 H 0.9414389640638348 99.58834215714742 29.027111210282953 H 0.0 **** 0.06
175 H 0.8934404362083228 100.80043740092003 27.724082035984623 H 0.0 **** 0.06
176 C 97.68700397800893 52.43392314265853 87.59030381262187 C 0.0 **** -0.24
177 H 96.97065106639545 52.75560222926376 88.34705313001146 H 0.0 **** 0.06
178 H 98.57244907501925 53.06823431951144 87.63570996989841 H 0.0 **** 0.06
179 H 97.23249274252075 52.516239065623836 86.60302420991545 H 0.0 **** 0.06
180 H 97.97054058618855 51.39869208559407 87.77545494591524 H 0.0 **** 0.06
181 C 18.97785292771907 38.878804650077186 56.387703629403944 C 0.0 **** -0.24
182 H 19.555203114720822 39.801762701433645 56.32096777825174 H 0.0 **** 0.06
183 H 18.23322607202367 38.8577374961167 55.591623581970225 H 0.0 **** 0.06
184 H 18.477691905109147 38.83294283672504 57.3548727000925 H 0.0 **** 0.06
185 H 19.64637007775946 38.02472611280315 56.283176044705925 H 0.0 **** 0.06
186 C 73.96261787906843 54.588564806373626 86.33762228378887 C 0.0 **** -0.24
187 H 74.15080397489862 54.161585708768285 85.35187824613232 H 0.0 **** 0.06
188 H 73.58301389422132 55.6048539805019 86.22588332840823 H 0.0 **** 0.06
189 H 74.89046569280319 54.608318103501006 86.90812868680632 H 0.0 **** 0.06
190 H 73.22606891024023 53.98052845373451 86.86237819898238 H 0.0 **** 0.06
191 C 1.5635579139087667 99.77313394474399 11.339487281670557 C 0.0 **** -0.24
192 H 2.0039524926952765 98.9790026588883 10.736928171759132 H 0.0 **** 0.06
193 H 0.7393074310779184 100.2299397112071 10.79021037763357 H 0.0 **** 0.06
194 H 2.319771937451293 100.52758714968073 11.556160068172517 H 0.0 **** 0.06
195 H 1.1891912612107376 99.35464085512905 12.274331437884285 H 0.0 **** 0.06
196 C 90.93272711236327 109.24561031290281 19.105135909172823 C 0.0 **** -0.24
197 H 90.37180337058828 108.63914597746452 19.816705296555206 H 0.0 **** 0.06
198 H 91.99827565704274 109.04002647017188 19.213888153680898 H 0.0 **** 0.06
199 H 90.74442656155105 110.30203710809914 19.30170354093874 H 0.0 **** 0.06
200 H 90.61565973251828 109.00277386207438 18.091573848349285 H 0.0 **** 0.06
201 C 73.22008003355725 33.38225937078772 23.058071579862094 C 0.0 **** -0.24
202 H 74.07312938058033 33.52608487089236 23.72110507865395 H 0.0 **** 0.06
203 H 73.21271688704968 34.166535304544 22.301067326937414 H 0.0 **** 0.06
204 H 72.29795949411368 33.427394776445425 23.63752381769453 H 0.0 **** 0.06
205 H 73.29766523195545 32.40857950178972 22.573282455035194 H 0.0 **** 0.06
206 C 44.06200667031561 26.744610527328007 109.08434686731064 C 0.0 **** -0.24
207 H 43.67712066540955 26.66874956832484 108.0669736244158 H 0.0 **** 0.06
208 H 44.36331488720657 27.772594707832667 109.28293994108105 H 0.0 **** 0.06
209 H 44.922607818047965 26.084717312734142 109.19655663767696 H 0.0 **** 0.06
210 H 43.28398183898392 26.449876425588798 109.7885240880382 H 0.0 **** 0.06
211 C 18.133803129296837 25.969340242298784 91.43394984130529 C 0.0 **** -0.24
212 H 17.17806598039408 25.57538819089774 91.08805291594939 H 0.0 **** 0.06
213 H 18.921443311936116 25.668402436983598 90.7437428247492 H 0.0 **** 0.06
214 H 18.35038457885389 25.576547100152396 92.42730697968952 H 0.0 **** 0.06
215 H 18.084565006480204 27.057463274261153 91.47718496344226 H 0.0 **** 0.06
216 C 44.357048214550446 29.142868148641412 65.1378754970307 C 0.0 **** -0.24
217 H 44.89383482185127 30.085623669846854 65.03384888921752 H 0.0 **** 0.06
218 H 44.0992887078001 28.984502730704406 66.1851342187937 H 0.0 **** 0.06
219 H 44.98871519782284 28.324812933219306 64.79012567929126 H 0.0 **** 0.06
220 H 43.44532152043655 29.176533474528327 64.54017192724814 H 0.0 **** 0.06
221 C 99.44435894229892 14.901911831701227 10.632439914324138 C 0.0 **** -0.24
222 H 100.14136138534874 14.067505148736245 10.709117561133151 H 0.0 **** 0.06
223 H 99.84214392411806 15.644385506134483 9.940066904421666 H 0.0 **** 0.06
224 H 99.31137399505613 15.355372698688996 11.614918749975242 H 0.0 **** 0.06
225 H 98.48383239222639 14.54041273098781 10.266265781833376 H 0.0 **** 0.06
226 C 46.69639838862258 85.73750623494311 14.847851999972136 C 0.0 **** -0.24
227 H 47.14942620257554 85.26512767392165 15.718934447926927 H 0.0 **** 0.06
228 H 47.15567366233395 85.34372992625981 13.941123355836396 H 0.0 **** 0.06
229 H 46.85345480853911 86.81499372325106 14.897252225596276 H 0.0 **** 0.06
230 H 45.627058902091676 85.52687739307595 14.835324514825402 H 0.0 **** 0.06
231 C 108.40665588693872 3.8267355628724715 81.22491913853432 C 0.0 **** -0.24
232 H 107.64616218500841 3.1139491376959256 81.54412634833568 H 0.0 **** 0.06
233 H 108.52012708031351 4.600118687381524 81.98481336777971 H 0.0 **** 0.06
234 H 108.1031977263776 4.284430005895246 80.2833580243994 H 0.0 **** 0.06
235 H 109.35594175329364 3.3082170617558404 81.08810052533875 H 0.0 **** 0.06
236 C 104.43799107080343 93.41322752667364 54.92368573267942 C 0.0 **** -0.24
237 H 103.3731732400964 93.2109852331123 54.81897997513556 H 0.0 **** 0.06
238 H 104.78865890819802 93.02915787825 55.88237444411442 H 0.0 **** 0.06
239 H 104.61050588113153 94.48869047094922 54.87764761763634 H 0.0 **** 0.06
240 H 104.98203526180626 92.92402273132271 54.11530029535538 H 0.0 **** 0.06
241 C 60.35804103129479 55.72203577911179 18.198766922370964 C 0.0 **** -0.24
242 H 59.9170588987692 56.17592572684214 17.310848509468883 H 0.0 **** 0.06
243 H 59.58070141236564 55.557365764352085 18.946510480287145 H 0.0 **** 0.06
244 H 61.11951016516815 56.38589978480303 18.605617773413428 H 0.0 **** 0.06
245 H 60.81147379682898 54.76795381510021 17.930946657330708 H 0.0 **** 0.06
246 C 73.1654071895212 10.222818576688155 96.84197558137652 C 0.0 **** -0.24
247 H 73.50090064263748 10.377261155733635 95.81640792013778 H 0.0 **** 0.06
248 H 73.92055238483701 10.599893464523063 97.53176443339296 H 0.0 **** 0.06
249 H 73.01015146049576 9.158826800204452 97.01710546754092 H 0.0 **** 0.06
250 H 72.22840777318933 10.757589157426054 97.00156876437174 H 0.0 **** 0.06
251 C 97.86605314084056 91.25043627754982 24.64469584911029 C 0.0 **** -0.24
252 H 98.88848281152883 90.9807725008935 24.907382636109773 H 0.0 **** 0.06
253 H 97.17162200231456 90.59390241132368 25.16875028789395 H 0.0 **** 0.06
254 H 97.72733845373048 91.14171910812891 23.56808481506272 H 0.0 **** 0.06
255 H 97.6772940776296 92.2844164196483 24.932363082524844 H 0.0 **** 0.06
256 C 80.06709082456138 81.46463219373885 109.77646650903472 C 0.0 **** -0.24
257 H 80.83516027652783 82.23064289701489 109.676881243786 H 0.0 **** 0.06
258 H 80.41331618374755 80.54079145261272 109.31289053454454 H 0.0 **** 0.06
259 H 79.15437792460003 81.79928282958491 109.28375819109382 H 0.0 **** 0.06
260 H 79.86511945125025 81.2873103558025 110.83310881150022 H 0.0 **** 0.06
261 C 2.351102248608072 1.8012573626822928 109.00213663823695 C 0.0 **** -0.24
262 H 1.9185389370559278 2.482353517940112 108.26958672742597 H 0.0 **** 0.06
263 H 2.362420692039933 2.2798771265734388 109.9809212694735 H 0.0 **** 0.06
264 H 3.3693996800780894 1.5502646775917555 108.70824158786954 H 0.0 **** 0.06
265 H 1.7518382766183151 0.8915447636085219 109.04943479552074 H 0.0 **** 0.06
266 C 91.74342996507741 17.78438777806295 61.88167925841765 C 0.0 **** -0.24
267 H 90.78993253669225 18.058265303111853 62.33388073589424 H 0.0 **** 0.06
268 H 91.74684873101705 16.716758788427143 61.6611955576432 H 0.0 **** 0.06
269 H 92.55242900268775 18.015968310377815 62.5737676536213 H 0.0 **** 0.06
270 H 91.88293301678186 18.34767950391415 60.95838148184063 H 0.0 **** 0.06
271 C 54.28596494926275 43.51992471676124 70.19725565319683 C 0.0 **** -0.24
272 H 55.269893064864355 43.35417148790822 70.63573450784102 H 0.0 **** 0.06
273 H 53.8396645492104 42.5605298939021 69.9351890056245 H 0.0 **** 0.06
274 H 54.38692768247734 44.130867170235206 69.30017748497264 H 0.0 **** 0.06
275 H 53.64950229269312 44.03384627833418 70.9172954297357 H 0.0 **** 0.06
276 C 66.60239722764265 97.5285613904486 104.7193050955662 C 0.0 **** -0.24
277 H 67.37962927338467 97.25380319563331 104.00695643803394 H 0.0 **** 0.06
278 H 66.38482071395904 98.5924936210186 104.6278062745788 H 0.0 **** 0.06
279 H 66.94475841777773 97.31282532893624 105.73136396345407 H 0.0 **** 0.06
280 H 65.69967995547469 96.95359040381643 104.51069461608643 H 0.0 **** 0.06
281 C 0.571756424683656 90.41220883402212 45.545395580623634 C 0.0 **** -0.24
282 H 1.3750035766565247 91.14766643513897 45.59442151740441 H 0.0 **** 0.06
283 H -0.38472323894029614 90.90810137052449 45.71023072683306 H 0.0 **** 0.06
284 H 0.7264505649035584 89.65363334953656 46.313479180272054 H 0.0 **** 0.06
285 H 0.5723904447068975 89.9387125430942 44.56315462194581 H 0.0 **** 0.06
286 C 21.386753093949572 29.25868974600084 57.551823009409645 C 0.0 **** -0.24
287 H 20.711763102407982 28.72231420564688 58.21811958978566 H 0.0 **** 0.06
288 H 20.88771694884008 30.14998457755604 57.169719731419946 H 0.0 **** 0.06
289 H 21.664042791467296 28.611378201829737 56.71875897828784 H 0.0 **** 0.06
290 H 22.282423433773655 29.55062375587883 58.09906472849923 H 0.0 **** 0.06
291 C 107.20362007299516 104.16692150305741 57.372310750959755 C 0.0 **** -0.24
292 H 107.34187051803619 103.37137659405818 58.104622509905006 H 0.0 **** 0.06
293 H 107.82823194770506 105.01945045365332 57.64086956931551 H 0.0 **** 0.06
294 H 106.1565673313693 104.47173135777533 57.3623123530047 H 0.0 **** 0.06
295 H 107.48725296570149 103.80460908172316 56.38450791360611 H 0.0 **** 0.06
296 C 97.61400350692381 43.14376132660142 20.03310104488571 C 0.0 **** -0.24
297 H 96.558963139389 42.88474471282904 19.94639127279021 H 0.0 **** 0.06
298 H 97.7232912713198 44.00475532606572 20.692261789317627 H 0.0 **** 0.06
299 H 98.00996307791556 43.38843923821905 19.047104508753193 H 0.0 **** 0.06
300 H 98.16367309668951 42.29776169411844 20.44590167758622 H 0.0 **** 0.06
301 C 50.94176096859809 74.8168882654347 82.22666781130346 C 0.0 **** -0.24
302 H 50.515140994997864 75.18769738931138 83.15985777525253 H 0.0 **** 0.06
303 H 51.714551185914644 75.50507544480868 81.88311851750532 H 0.0 **** 0.06
304 H 50.15752117792496 74.74407969890831 81.4730198395597 H 0.0 **** 0.06
305 H 51.37907158036057 73.83334298050676 82.39321327364874 H 0.0 **** 0.06
306 C 14.204942194304493 22.494756277478217 94.93261874325981 C 0.0 **** -0.24
307 H 15.260702738659973 22.363143962507706 95.16684339633952 H 0.0 **** 0.06
308 H 13.734579080882412 21.517837217378997 94.81370207119832 H 0.0 **** 0.06
309 H 14.105081230940357 23.060944122281597 94.00716132108383 H 0.0 **** 0.06
310 H 13.717139404603529 23.035784653359883 95.74383336361831 H 0.0 **** 0.06
311 C 40.078703212842484 66.62385998335463 60.908509261006806 C 0.0 **** -0.24
312 H 41.11748015198633 66.29822313988535 60.84635175749458 H 0.0 **** 0.06
313 H 39.848705891478545 66.90667264207451 61.93632183572523 H 0.0 **** 0.06
314 H 39.423878835625324 65.80924600509064 60.60005592759082 H 0.0 **** 0.06
315 H 39.92743562447106 67.48125179815582 60.25263977246278 H 0.0 **** 0.06
316 C 100.94006380948437 76.03960217652877 26.469905108049346 C 0.0 **** -0.24
317 H 100.34747223360884 76.57670366767562 27.20994602366386 H 0.0 **** 0.06
318 H 101.95665732818352 75.91222802960363 26.841269895746933 H 0.0 **** 0.06
319 H 100.96082617954522 76.60802918244599 25.53964057593467 H 0.0 **** 0.06
320 H 100.49394451576546 75.06194761151156 26.287056738741427 H 0.0 **** 0.06
321 C 92.88273561860285 43.64483468823694 111.18489135519022 C 0.0 **** -0.24
322 H 93.23928183431241 43.47935650394538 110.16830631308461 H 0.0 **** 0.06
323 H 91.87585002086081 43.237166442369414 111.28685465679223 H 0.0 **** 0.06
324 H 92.86544499678928 44.71363389549846 111.394685530393 H 0.0 **** 0.06
325 H 93.54885503452459 43.14660272958807 111.88868619888663 H 0.0 **** 0.06
326 C 5.873919953571789 11.525903946545299 59.93691867818273 C 0.0 **** -0.24
327 H 5.930092360433882 12.404519167881574 59.294912216148 H 0.0 **** 0.06
328 H 5.364613238204193 11.78639772036874 60.86567922434262 H 0.0 **** 0.06
329 H 6.880863651539352 11.174484628797586 60.16034248895769 H 0.0 **** 0.06
330 H 5.318821106394175 10.737718848068653 59.426437517367056 H 0.0 **** 0.06
331 C 24.488201320813985 68.1618805008309 43.89790142805845 C 0.0 **** -0.24
332 H 24.96230786592895 69.12052560286975 43.68741879061545 H 0.0 **** 0.06
333 H 23.42779257818671 68.31659551502025 44.095468922507024 H 0.0 **** 0.06
334 H 24.959373302145437 67.7082478196451 44.77030774869277 H 0.0 **** 0.06
335 H 24.606082026314 67.50206602276799 43.03721536861153 H 0.0 **** 0.06
336 C 13.299926241163291 54.782250867393714 13.250692874156783 C 0.0 **** -0.24
337 H 13.001100573824047 55.82959392339467 13.306605342122921 H 0.0 **** 0.06
338 H 12.969952510754567 54.360671680375674 12.300385131145177 H 0.0 **** 0.06
339 H 12.843810264984313 54.230041949290865 14.071789618890804 H 0.0 **** 0.06
340 H 14.384678674693788 54.7107344150582 13.32308682847399 H 0.0 **** 0.06
341 C 58.56810533895771 56.7717060916066 62.624148187864876 C 0.0 **** -0.24
342 H 59.62950085250918 56.98131478461505 62.76020038594697 H 0.0 **** 0.06
343 H 58.25215043977619 56.01506996719033 63.343116011316965 H 0.0 **** 0.06
344 H 58.39737533416542 56.405565985409424 61.61220400522194 H 0.0 **** 0.06
345 H 57.99458450944309 57.68431308246707 62.7815922760808 H 0.0 **** 0.06
346 C 10.175391129264256 72.85639172732837 13.729999837481785 C 0.0 **** -0.24
347 H 9.96584465357256 71.79918302214313 13.894418352322816 H 0.0 **** 0.06
348 H 10.591917401444107 73.28927476251263 14.639635228384236 H 0.0 **** 0.06
349 H 9.251478056959172 73.37273288638599 13.471052381062464 H 0.0 **** 0.06
350 H 10.892259245278183 72.9609195401384 12.914675046907007 H 0.0 **** 0.06
351 C 46.78574724467208 58.90354332731897 97.21961136842037 C 0.0 **** -0.24
352 H 47.85511795947132 58.921116638529014 97.42953000239535 H 0.0 **** 0.06
353 H 46.323164036246816 59.80802430670616 97.61700717880905 H 0.0 **** 0.06
354 H 46.33761896186265 58.02869214081156 97.6910409515593 H 0.0 **** 0.06
355 H 46.62834112314066 58.85716389440759 96.14280425635883 H 0.0 **** 0.06
356 C 17.699794724348692 59.87680908240589 7.629040891118336 C 0.0 **** -0.24
357 H 17.40331034982387 60.913514779282345 7.472901071595601 H 0.0 **** 0.06
358 H 18.701770229627215 59.846925057071665 8.056583164283325 H 0.0 **** 0.06
359 H 17.695905230382692 59.34952186270339 6.6744925621866855 H 0.0 **** 0.06
360 H 16.998830291536564 59.396684716380655 8.311690753231602 H 0.0 **** 0.06
361 C 51.1282676868546 39.288710762268295 43.05320278223527 C 0.0 **** -0.24
362 H 51.237451633436365 38.20816453273329 42.96575538531037 H 0.0 **** 0.06
363 H 51.83749702309581 39.78000141421424 42.387849812065745 H 0.0 **** 0.06
364 H 51.324434504763644 39.59196593866875 44.08135804084649 H 0.0 **** 0.06
365 H 50.11235032495506 39.574263735616256 42.7779558460064 H 0.0 **** 0.06
366 C 58.46301052482548 52.15612962392299 1.2604388620381286 C 0.0 **** -0.24
367 H 57.7233635422015 52.863321094954756 1.6370925607009355 H 0.0 **** 0.06
368 H 59.463424865001116 52.51882698610132 1.4940819589931778 H 0.0 **** 0.06
369 H 58.35428051725029 52.05752797636251 0.17976964192159528 H 0.0 **** 0.06
370 H 58.308559487049905 51.1848906358849 1.7303964027687044 H 0.0 **** 0.06
371 C 42.95213213836527 105.24359386363213 21.059304756646412 C 0.0 **** -0.24
372 H 43.72663414261889 105.54812948311618 20.355400579862078 H 0.0 **** 0.06
373 H 42.94853550231875 104.15710453652608 21.14871066573977 H 0.0 **** 0.06
374 H 41.98058258510767 105.58350027715593 20.699304008317597 H 0.0 **** 0.06
375 H 43.15327061595447 105.68834799920796 22.03445885883727 H 0.0 **** 0.06
376 C 47.4966501652022 89.36842941981564 50.98201095018591 C 0.0 **** -0.24
377 H 48.015663017303496 89.96474803665853 51.73206236494051 H 0.0 **** 0.06
378 H 47.685868548368774 89.78477182711029 49.9923535249238 H 0.0 **** 0.06
379 H 46.425861049959394 89.38415111263907 51.18429013584993 H 0.0 **** 0.06
380 H 47.859107330885536 88.34135930019573 51.01985455186617 H 0.0 **** 0.06
381 C 103.1612114509789 16.675852343841342 48.890187357731094 C 0.0 **** -0.24
382 H 103.12793608569169 17.733569454943222 48.63139094834125 H 0.0 **** 0.06
383 H 103.97544450577013 16.19478574668139 48.347239926474316 H 0.0 **** 0.06
384 H 102.2154862767066 16.205431288723503 48.6187902574803 H 0.0 **** 0.06
385 H 103.32555539789496 16.568684864757813 49.962358325882235 H 0.0 **** 0.06
386 C 15.812345550445798 81.27891684319334 103.06618501405634 C 0.0 **** -0.24
387 H 15.776757356418699 80.25190375162921 102.70353235935343 H 0.0 **** 0.06
388 H 14.889751954152501 81.79125145988976 102.79738106580493 H 0.0 **** 0.06
389 H 16.660689028469932 81.79365708676713 102.61360431141401 H 0.0 **** 0.06
390 H 15.925760091870316 81.27682993333352 104.150554513618 H 0.0 **** 0.06
391 C 32.44849657577686 94.84731770817484 70.92885545389191 C 0.0 **** -0.24
392 H 31.538307358416517 95.06922098392513 71.48760049004107 H 0.0 **** 0.06
393 H 32.68014854567595 93.78562843483112 71.02040710749321 H 0.0 **** 0.06
394 H 33.27287654967586 95.43576148463026 71.32955468689278 H 0.0 **** 0.06
395 H 32.29869828025129 95.09717859372327 69.87825970496294 H 0.0 **** 0.06
396 C 27.454920305090468 20.915395903780563 44.80136718060464 C 0.0 **** -0.24
397 H 28.13861684301355 21.4765935740258 45.43885572702277 H 0.0 **** 0.06
398 H 26.54413814939602 20.690027273486066 45.35626738987469 H 0.0 **** 0.06
399 H 27.929756381809682 19.985711087699315 44.48916502729418 H 0.0 **** 0.06
400 H 27.207637723520577 21.50981182050458 43.92186423749729 H 0.0 **** 0.06
401 C 94.7621336803387 102.06218075411863 56.68532668504028 C 0.0 **** -0.24
402 H 94.0673935300673 102.88889136358327 56.537559730624 H 0.0 **** 0.06
403 H 95.77204298091328 102.4539609323734 56.806326202518136 H 0.0 **** 0.06
404 H 94.72892339830071 101.40133702657369 55.819763877945235 H 0.0 **** 0.06
405 H 94.47825517843592 101.50490097115213 57.57913356528212 H 0.0 **** 0.06
406 C 22.10587557969245 106.55816917246534 11.967662283816054 C 0.0 **** -0.24
407 H 22.226237916649097 105.97971455662417 11.052017417660721 H 0.0 **** 0.06
408 H 21.043872562577803 106.72081975279026 12.156955404368347 H 0.0 **** 0.06
409 H 22.606199982086366 107.51964450830606 11.857362719575065 H 0.0 **** 0.06
410 H 22.54506971353692 106.012434365118 12.803091786643236 H 0.0 **** 0.06
411 C 1.3961782106655676 63.40497182716604 52.27971377492824 C 0.0 **** -0.24
412 H 1.6869793252565444 64.23956353699953 51.64211456447029 H 0.0 **** 0.06
413 H 0.5355981930111682 63.692360223434434 52.88360061812298 H 0.0 **** 0.06
414 H 2.2278766104957413 63.14060506280015 52.933227668263186 H 0.0 **** 0.06
415 H 1.1356506771342652 62.54773707425653 51.65895345846059 H 0.0 **** 0.06
416 C 90.7873166318276 47.18563683354097 31.60325694177567 C 0.0 **** -0.24
417 H 90.2454639407512 46.36943784374358 32.07973064173257 H 0.0 **** 0.06
418 H 91.11928657258255 47.89276301434148 32.36260853446083 H 0.0 **** 0.06
419 H 90.13098898220306 47.692957546005005 30.89611261004262 H 0.0 **** 0.06
420 H 91.65283324460495 46.787330011086226 31.073858175432633 H 0.0 **** 0.06
421 C 87.340189638477 65.90216590730921 64.76396999964828 C 0.0 **** -0.24
422 H 87.40251192352068 66.7603318001506 64.09464299747549 H 0.0 **** 0.06
423 H 86.32148593147048 65.80971343113404 65.14049580912555 H 0.0 **** 0.06
424 H 88.02513966147626 66.04350564918366 65.59952723104595 H 0.0 **** 0.06
425 H 87.61059782187283 64.99667551539753 64.21998470345275 H 0.0 **** 0.06
426 C 62.0482078572519 54.21969187337481 38.0306233774802 C 0.0 **** -0.24
427 H 61.77660848734808 53.37185745304572 38.65957406824475 H 0.0 **** 0.06
428 H 62.957622959286844 53.98416898572191 37.476686014378686 H 0.0 **** 0.06
429 H 62.220725844656236 55.09480334236463 38.65644348043941 H 0.0 **** 0.06
430 H 61.23931853983053 54.42576804414108 37.330888444064044 H 0.0 **** 0.06
431 C 9.49678293966231 110.43206164588884 60.56336518884035 C 0.0 **** -0.24
432 H 10.41367578157461 109.90465601783333 60.301945683345025 H 0.0 **** 0.06
433 H 8.952803325817499 109.86172493165421 61.31706252022076 H 0.0 **** 0.06
434 H 8.8757673028136 110.54403623816006 59.67426412988482 H 0.0 **** 0.06
435 H 9.744421178170882 111.4157257932209 60.961354501683275 H 0.0 **** 0.06
436 C 75.32436556447595 50.31464371177347 81.71018353044369 C 0.0 **** -0.24
437 H 74.99233166679286 51.14551741273905 82.3323858710034 H 0.0 **** 0.06
438 H 75.58843025630074 50.68497458731764 80.71900073205475 H 0.0 **** 0.06
439 H 74.52006951969634 49.58351203043921 81.62254344439674 H 0.0 **** 0.06
440 H 76.1947960536408 49.84406689770972 82.1674204694738 H 0.0 **** 0.06
441 C 98.2517474799823 71.4828608447022 44.77343791747586 C 0.0 **** -0.24
442 H 97.39108947718725 71.05082077690108 44.26388270817475 H 0.0 **** 0.06
443 H 99.16914874054717 71.11644009236454 44.31057372117576 H 0.0 **** 0.06
444 H 98.2342241717794 71.19436346220624 45.824420116946044 H 0.0 **** 0.06
445 H 98.21422940220415 72.56949939839521 44.69483478579275 H 0.0 **** 0.06
446 C 18.772487419584134 25.256738552908757 80.11694967061851 C 0.0 **** -0.24
447 H 19.285071582547257 25.78174879515467 80.92271830053903 H 0.0 **** 0.06
448 H 18.84887880494755 25.838208873168185 79.19772877310285 H 0.0 **** 0.06
449 H 17.722201803252588 25.12600400025009 80.37886765340033 H 0.0 **** 0.06
450 H 19.234421268317323 24.280211144244177 79.96846471448393 H 0.0 **** 0.06
451 C 50.3614577447149 69.02999278496219 5.640320552663525 C 0.0 **** -0.24
452 H 50.79081678680768 69.8941761029088 6.14805714205653 H 0.0 **** 0.06
453 H 51.13145024665917 68.27064170672858 5.501216565751577 H 0.0 **** 0.06
454 H 49.97115554773194 69.33536697072844 4.670201429564315 H 0.0 **** 0.06
455 H 49.55229663085575 68.62058047049567 6.245322415837961 H 0.0 **** 0.06
456 C 54.116483511962215 41.38218052926385 97.35780144083668 C 0.0 **** -0.24
457 H 53.210856178001706 40.778581972318875 97.41990069758185 H 0.0 **** 0.06
458 H 54.16007907074417 41.87228127133392 96.38468164658144 H 0.0 **** 0.06
459 H 54.98942401972972 40.74171469272807 97.48110486099833 H 0.0 **** 0.06
460 H 54.10426841007393 42.13618806280414 98.14497857016622 H 0.0 **** 0.06
461 C 30.890609667985686 14.003584371105447 92.98471009949716 C 0.0 **** -0.24
462 H 31.36052794801398 14.235598025185627 92.02975890804137 H 0.0 **** 0.06
463 H 31.64807143220159 13.654664286075537 93.68681754094561 H 0.0 **** 0.06
464 H 30.141863718173227 13.224269584952072 92.84123403496318 H 0.0 **** 0.06
465 H 30.411873320161305 14.898811700041524 93.38107219026332 H 0.0 **** 0.06
466 C 20.045836312807353 6.275899700380464 20.969599858178185 C 0.0 **** -0.24
467 H 19.673050312229634 6.036196804757338 21.965771303254996 H 0.0 **** 0.06
468 H 21.116094899506777 6.476276088615606 21.020396068500702 H 0.0 **** 0.06
469 H 19.528417462426773 7.1579115894347325 20.591720021665708 H 0.0 **** 0.06
470 H 19.86376410200802 5.434213791943947 20.30147492663849 H 0.0 **** 0.06
471 C 97.63579583623036 6.348301182972261 39.380271035804896 C 0.0 **** -0.24
472 H 97.36954032977292 6.039427178989451 40.391230608587385 H 0.0 **** 0.06
473 H 96.77222459588725 6.8123240171587 38.90346716669352 H 0.0 **** 0.06
474 H 97.94547823072588 5.477296148185239 38.80409801983821 H 0.0 **** 0.06
475 H 98.45555782585174 7.065526102196213 39.424283532140244 H 0.0 **** 0.06
476 C 37.2518927403122 111.11062417015143 54.266563505844516 C 0.0 **** -0.24
477 H 36.27658812337609 111.46164685182362 54.60332656239041 H 0.0 **** 0.06
478 H 37.12121015570358 110.41546935642276 53.43654464955915 H 0.0 **** 0.06
479 H 37.75930677252654 110.60404675549694 55.08833402488963 H 0.0 **** 0.06
480 H 37.8504052428753 111.96035228140119 53.93823088734277 H 0.0 **** 0.06
481 C 13.033313315048574 5.395834901245593 8.967548657573417 C 0.0 **** -0.24
482 H 13.451982753398365 6.2882237814093855 8.501549283033825 H 0.0 **** 0.06
483 H 12.03838100990038 5.6212907773047505 9.352682140251545 H 0.0 **** 0.06
484 H 13.677670093403147 5.077429262285591 9.786782176999765 H 0.0 **** 0.06
485 H 12.964327872585244 4.599164072240711 8.227586546793276 H 0.0 **** 0.06
486 C 103.46820601561282 69.81279144482698 70.08211508789458 C 0.0 **** -0.24
487 H 102.81124249946848 70.36749154637275 69.41216051689793 H 0.0 **** 0.06
488 H 104.2118425989485 69.27328984726236 69.49659738621119 H 0.0 **** 0.06
489 H 102.87890113835604 69.10516484410081 70.66408988659646 H 0.0 **** 0.06
490 H 103.96914294592753 70.50802343266525 70.75612850889434 H 0.0 **** 0.06
491 C 75.54951166897337 46.89294105365222 78.45685182995484 C 0.0 **** -0.24
492 H 75.92637067119671 47.88720446069681 78.2179586864226 H 0.0 **** 0.06
493 H 76.31042723963998 46.14896353448107 78.2162911031293 H 0.0 **** 0.06
494 H 74.65009403231545 46.694997707363996 77.8727706684086 H 0.0 **** 0.06
495 H 75.31271552909584 46.83942016190804 79.51891182084739 H 0.0 **** 0.06
496 C 109.1398026639044 82.22464806901328 79.86308570930854 C 0.0 **** -0.24
497 H 109.56041298999533 83.20811492475212 80.07353357530553 H 0.0 **** 0.06
498 H 108.11540098586985 82.18165058547393 80.23254583985818 H 0.0 **** 0.06
499 H 109.73763756546367 81.46023769872761 80.35880596309207 H 0.0 **** 0.06
500 H 109.14619198274454 82.04928994545281 78.78689049235058 H 0.0 **** 0.06
501 C 16.162854691166842 74.85070424697312 48.258162794704134 C 0.0 **** -0.24
502 H 16.323111348453637 75.77085885585598 47.69675682970555 H 0.0 **** 0.06
503 H 15.953102652756684 75.09285430789328 49.299886272447 H 0.0 **** 0.06
504 H 17.057516498952822 74.2299909098474 48.20163282241964 H 0.0 **** 0.06
505 H 15.317654161345018 74.30870038037745 47.833464919435386 H 0.0 **** 0.06
506 C 100.0905165123971 38.1464002633879 34.78598224044117 C 0.0 **** -0.24
507 H 100.25327193447566 37.26389560628378 34.16721039475942 H 0.0 **** 0.06
508 H 99.5971773899075 37.85380526715283 35.71308854063727 H 0.0 **** 0.06
509 H 99.46208356369704 38.85601290583873 34.24825434500622 H 0.0 **** 0.06
510 H 101.04971213428638 38.61091655818178 35.015215257758996 H 0.0 **** 0.06
511 C 42.59996553861012 80.38033621080478 94.63920432800242 C 0.0 **** -0.24
512 H 42.86518278154168 79.3375893750017 94.46261643980165 H 0.0 **** 0.06
513 H 42.819041251264224 80.96785186572237 93.74707113617731 H 0.0 **** 0.06
514 H 43.17871757975146 80.76432081916539 95.4786316474561 H 0.0 **** 0.06
515 H 41.53682601715124 80.45018074708412 94.86833848628984 H 0.0 **** 0.06
516 C 3.4991343970670243 29.463570675568107 31.495694521950185 C 0.0 **** -0.24
517 H 3.4426261062094454 29.058773496062578 30.48530972568392 H 0.0 **** 0.06
518 H 2.8979610696147233 28.848311373285974 32.16647549440009 H 0.0 **** 0.06
519 H 3.1182703389088147 30.484925517477038 31.499848271704167 H 0.0 **** 0.06
520 H 4.535981269359183 29.45985082809377 31.83164556894883 H 0.0 **** 0.06
521 C 10.721189537793066 99.80821146014972 84.90977894910151 C 0.0 **** -0.24
522 H 10.131789190542264 100.3835962883044 85.62388744044893 H 0.0 **** 0.06
523 H 10.87796788673947 100.3998890765831 84.00825829074302 H 0.0 **** 0.06
524 H 10.188136661130073 98.89134663112134 84.65477306136583 H 0.0 **** 0.06
525 H 11.684185966881785 99.55709532413442 85.35318834554514 H 0.0 **** 0.06
526 C 110.24688658567946 65.87922264424174 90.25212401785686 C 0.0 **** -0.24
527 H 109.39311782416694 66.07788808214107 89.60457223365438 H 0.0 **** 0.06
528 H 110.44387262026785 66.75446433699167 90.87134116983137 H 0.0 **** 0.06
529 H 111.12319998301606 65.66180560876242 89.64144730051297 H 0.0 **** 0.06
530 H 110.02836437709183 65.02370452427414 90.89093945315653 H 0.0 **** 0.06
531 C 28.827678365659665 66.48800550593077 49.65819791037637 C 0.0 **** -0.24
532 H 28.714794950723842 66.79253115391825 48.61800090056508 H 0.0 **** 0.06
533 H 27.88026138312088 66.09233835024074 50.02518155304347 H 0.0 **** 0.06
534 H 29.120585551334017 67.34849932047084 50.259376869044274 H 0.0 **** 0.06
535 H 29.595289709066975 65.7168369549643 49.72894625529125 H 0.0 **** 0.06
536 C 25.206638995056807 35.44722476852158 87.4014097570064 C 0.0 **** -0.24
537 H 25.30853827666533 34.876391659208394 86.47832173299923 H 0.0 **** 0.06
538 H 26.084998937964542 35.28482793502482 88.0273686695906 H 0.0 **** 0.06
539 H 24.314762130582437 35.117803391018384 87.93523149804881 H 0.0 **** 0.06
540 H 25.11847993730649 36.50689609771072 87.16498226791677 H 0.0 **** 0.06
541 C 50.72013204448065 18.265668546658247 67.6997525326367 C 0.0 **** -0.24
542 H 51.00236304127405 18.3348029314638 66.64947901717011 H 0.0 **** 0.06
543 H 50.7542914210549 19.25729785247364 68.1518243076473 H 0.0 **** 0.06
544 H 51.41533715575121 17.605277298911062 68.21862599918222 H 0.0 **** 0.06
545 H 49.71021453124881 17.86365682816711 67.77837545007509 H 0.0 **** 0.06
546 C 55.67029169344608 3.0572365188888284 0.8899859304303561 C 0.0 **** -0.24
547 H 56.261844072375204 3.6505696353906387 0.19338996737963043 H 0.0 **** 0.06
548 H 55.04889426210333 3.719240991188343 1.493626335255044 H 0.0 **** 0.06
549 H 56.336644861807024 2.4899812931412413 1.5401115908489658 H 0.0 **** 0.06
550 H 55.03431566478237 2.3696623574948603 0.33213857575967154 H 0.0 **** 0.06
551 C 48.63952437798554 77.5428651980362 59.27131053164709 C 0.0 **** -0.24
552 H 49.02649709192593 78.549065116532 59.43019474818027 H 0.0 **** 0.06
553 H 48.36175381326103 77.4219956302685 58.2240519799318 H 0.0 **** 0.06
554 H 47.76256072070137 77.38754919000448 59.899985399274954 H 0.0 **** 0.06
555 H 49.40677008092706 76.81325131633295 59.53025261370664 H 0.0 **** 0.06
556 C 86.31624732214539 83.57112198012999 91.46738436990313 C 0.0 **** -0.24
557 H 86.53854941038503 82.51271661852954 91.59997853200608 H 0.0 **** 0.06
558 H 86.64673939357814 84.12505800979409 92.34526088629374 H 0.0 **** 0.06
559 H 85.24141237295595 83.70207785545671 91.33683607401304 H 0.0 **** 0.06
560 H 86.83772430737159 83.94353670659413 90.58472786453345 H 0.0 **** 0.06
561 C 67.29565593146663 33.78348209215767 16.792507977219113 C 0.0 **** -0.24
562 H 66.23619226485499 33.67043803341727 17.022792973062092 H 0.0 **** 0.06
563 H 67.70663851765136 32.820459062143925 16.488869424499928 H 0.0 **** 0.06
564 H 67.82315845259632 34.14116598262598 17.676127607351276 H 0.0 **** 0.06
565 H 67.41620966918117 34.50234376782031 15.98147337111029 H 0.0 **** 0.06
566 C 107.1563183445857 11.896119641389589 66.90058081596018 C 0.0 **** -0.24
567 H 107.24999407930733 12.462635416094614 67.82624870287833 H 0.0 **** 0.06
568 H 107.93111736670018 12.21235786075691 66.2008263161969 H 0.0 **** 0.06
569 H 106.17522830196012 12.077150772346641 66.46225398580802 H 0.0 **** 0.06
570 H 107.26980371456851 10.832127040825355 67.11189880432752 H 0.0 **** 0.06
571 C 74.02481990117593 37.73098576872235 63.957038680911786 C 0.0 **** -0.24
572 H 73.75329261943662 38.66657589452956 64.4453064405482 H 0.0 **** 0.06
573 H 75.03626118782202 37.81022244762312 63.55820102360446 H 0.0 **** 0.06
574 H 73.32726668525783 37.52836328058845 63.14446067383724 H 0.0 **** 0.06
575 H 73.98312500184551 36.91754261599601 64.68192502161236 H 0.0 **** 0.06
576 C 57.027434547634115 26.885853893292563 110.53373122328273 C 0.0 **** -0.24
577 H 57.93269220665348 27.39362026091868 110.86449276587274 H 0.0 **** 0.06
578 H 56.17591931577174 27.245111409961055 111.1128713775519 H 0.0 **** 0.06
579 H 57.13938301392659 25.811009888525604 110.68064061666178 H 0.0 **** 0.06
580 H 56.86134869940325 27.092338518417478 109.47667401042261 H 0.0 **** 0.06
581 C 17.86730593371115 68.20856475820801 6.481476653800428 C 0.0 **** -0.24
582 H 17.017568884407723 68.13758633187177 5.8018286188946036 H 0.0 **** 0.06
583 H 18.322932327188596 69.19439980048287 6.390442435566314 H 0.0 **** 0.06
584 H 18.600304727068277 67.44334928642309 6.226944900402515 H 0.0 **** 0.06
585 H 17.526541972630895 68.05826851197935 7.505258016758319 H 0.0 **** 0.06
586 C 4.184987297298807 10.770446494609018 11.547434179912827 C 0.0 **** -0.24
587 H 4.570801352978355 10.667190065266823 12.562054336946176 H 0.0 **** 0.06
588 H 5.008120168289329 10.974538427289986 10.864218965456331 H 0.0 **** 0.06
589 H 3.470025754780119 11.592998325329972 11.513376660188214 H 0.0 **** 0.06
590 H 3.688186840592241 9.845875966878452 11.253503862625692 H 0.0 **** 0.06
591 C 100.28457574613677 38.931849204517704 69.66851600783022 C 0.0 **** -0.24
592 H 100.13387632549984 39.452983407640176 68.72246247601475 H 0.0 **** 0.06
593 H 99.5268021224106 39.25064816565913 70.38344865061967 H 0.0 **** 0.06
594 H 101.27498263966177 39.1656581083144 70.0583158772757 H 0.0 **** 0.06
595 H 100.20232293891735 37.85630840010265 69.50745725351445 H 0.0 **** 0.06
596 C 22.219061047783498 12.377729793750792 78.41647068268401 C 0.0 **** -0.24
597 H 22.416610459412425 11.53610258129332 79.08061996936124 H 0.0 **** 0.06
598 H 23.004812898295427 12.437099814118554 77.66274283208008 H 0.0 **** 0.06
599 H 22.20073164430167 13.300889727800843 78.99621993106018 H 0.0 **** 0.06
600 H 21.255482553485564 12.236379074100018 77.92799060030643 H 0.0 **** 0.06
601 C 94.86910172175237 41.07118235298634 95.42382644686973 C 0.0 **** -0.24
602 H 94.08264262764675 40.59455903552035 94.83786505792321 H 0.0 **** 0.06
603 H 94.51927994687156 41.2238125054763 96.44476040407565 H 0.0 **** 0.06
604 H 95.1204647402995 42.03358491768486 94.97815917022658 H 0.0 **** 0.06
605 H 95.75224512826304 40.43283767474745 95.43316194831871 H 0.0 **** 0.06
606 C 60.9683038535216 22.656256198881877 51.13326978123412 C 0.0 **** -0.24
607 H 61.66354674400417 22.927575956107816 50.338302894933975 H 0.0 **** 0.06
608 H 60.0897183452818 22.179496876212156 50.70025665925095 H 0.0 **** 0.06
609 H 60.666741529041765 23.554201507794275 51.67238736070835 H 0.0 **** 0.06
610 H 61.45591921218372 21.965594890403153 51.82162988910163 H 0.0 **** 0.06
611 C 8.040284006214337 68.01192030318813 84.00636605890492 C 0.0 **** -0.24
612 H 8.547831829585164 67.11867171976817 84.36881811775692 H 0.0 **** 0.06
613 H 6.9996050687150575 67.77502053053158 83.78597954869781 H 0.0 **** 0.06
614 H 8.531935459254377 68.36590058314005 83.09889796743289 H 0.0 **** 0.06
615 H 8.08403245935029 68.78902261588513 84.76845488041386 H 0.0 **** 0.06
616 C 51.146828717260064 12.950216214751656 48.61282733361435 C 0.0 **** -0.24
617 H 50.69882532865182 13.941588204367282 48.554845760871274 H 0.0 **** 0.06
618 H 52.111395481488216 12.95752451285562 48.10439839711614 H 0.0 **** 0.06
619 H 50.48835059418758 12.225579626840105 48.13223410122038 H 0.0 **** 0.06
620 H 51.287286481653325 12.675515441033074 49.65826718974864 H 0.0 **** 0.06
621 C 83.48896049097249 99.63033675419891 89.0488767074988 C 0.0 **** -0.24
622 H 83.34258131185564 98.79207096580129 88.36899150041748 H 0.0 **** 0.06
623 H 84.13494138718511 99.32201074845668 89.87168240585706 H 0.0 **** 0.06
624 H 82.52439995097797 99.94935941103302 89.44406136224302 H 0.0 **** 0.06
625 H 83.9533186884608 100.45804739778697 88.51239001606746 H 0.0 **** 0.06
626 C 24.43114825738732 103.91935298655 104.6659774829445 C 0.0 **** -0.24
627 H 23.54961326990852 104.24421788716333 104.1138396219176 H 0.0 **** 0.06
628 H 24.16109118891538 103.09707972532487 105.32941950505355 H 0.0 **** 0.06
629 H 24.816510960066466 104.75091543967199 105.25690634985756 H 0.0 **** 0.06
630 H 25.19600677413743 103.58595715416902 103.96562758775127 H 0.0 **** 0.06
631 C 54.1237561696166 87.727105084149 14.193794082371312 C 0.0 **** -0.24
632 H 55.19713725631374 87.6086415167924 14.343306089017858 H 0.0 **** 0.06
633 H 53.59289836599103 87.35397640292027 15.071082811888246 H 0.0 **** 0.06
634 H 53.81476406788747 87.16138516932341 13.314939010511239 H 0.0 **** 0.06
635 H 53.89144875302941 88.78143284503912 14.048416823355097 H 0.0 **** 0.06
636 C 91.52977908424495 51.48321854513993 106.49927720630265 C 0.0 **** -0.24
637 H 91.24111892175557 52.40695040988076 106.99986295387849 H 0.0 **** 0.06
638 H 90.82394183329131 51.26965016872181 105.69645049560359 H 0.0 **** 0.06
639 H 91.5236603386522 50.663544989503855 107.21739570915474 H 0.0 **** 0.06
640 H 92.53187189859187 51.59429151244839 106.0827855686043 H 0.0 **** 0.06
641 C 67.04260734920655 23.612843710204203 68.12434047985309 C 0.0 **** -0.24
642 H 68.08364537869852 23.656422666208883 67.80287176219 H 0.0 **** 0.06
643 H 66.57871644230647 24.589173509596264 67.98569808886936 H 0.0 **** 0.06
644 H 66.99934314382745 23.33458856888676 69.1771760107695 H 0.0 **** 0.06
645 H 66.51039643053656 22.868884309774984 67.53067357114236 H 0.0 **** 0.06
646 C 46.56589053198681 84.84469465439349 21.896580318976874 C 0.0 **** -0.24
647 H 46.19805932279408 85.7493774982552 22.38098362201751 H 0.0 **** 0.06
648 H 47.65286015240673 84.88543696736838 21.826942019100272 H 0.0 **** 0.06
649 H 46.1396662205357 84.76908073654252 20.89619601065067 H 0.0 **** 0.06
650 H 46.271632775600494 83.97344613535262 22.482558845311843 H 0.0 **** 0.06
651 C 0.534365551949449 4.028072858503744 18.86392459066772 C 0.0 **** -0.24
652 H 0.0018206475048430093 3.3346424073788405 18.212957210599797 H 0.0 **** 0.06
653 H 0.5806489254260185 5.0080162511865485 18.388548735354505 H 0.0 **** 0.06
654 H 1.5445627892575118 3.660198723425072 19.038883036870715 H 0.0 **** 0.06
655 H 0.006752565121701082 4.1096962743754 19.814669347203875 H 0.0 **** 0.06
656 C 54.960078240533 84.99025069516796 69.36690363549815 C 0.0 **** -0.24
657 H 54.85048650742129 85.04909740247308 70.45003803991153 H 0.0 **** 0.06
658 H 55.89385346705095 85.46896132095284 69.06925544870282 H 0.0 **** 0.06
659 H 54.12262520358097 85.4985497027466 68.8890533286584 H 0.0 **** 0.06
660 H 54.97334778407894 83.94439435449925 69.0592677247198 H 0.0 **** 0.06
661 C 101.10750771089036 7.781032437563113 38.881279571082416 C 0.0 **** -0.24
662 H 101.29156239441576 8.17401591192214 37.881047452880836 H 0.0 **** 0.06
663 H 100.68189711001435 6.77915257138676 38.805194835354825 H 0.0 **** 0.06
664 H 100.40923328484533 8.433795520911218 39.40505487442536 H 0.0 **** 0.06
665 H 102.04665398261088 7.7358443258608816 39.43187529664664 H 0.0 **** 0.06
666 C 55.5755775171277 83.75375737887921 14.92835718627046 C 0.0 **** -0.24
667 H 56.07382856957713 82.87822778542312 14.51103206310826 H 0.0 **** 0.06
668 H 55.14160159419197 83.49808053604298 15.895416484257225 H 0.0 **** 0.06
669 H 54.78668589469268 84.07955687988738 14.250423500608989 H 0.0 **** 0.06
670 H 56.30039957732967 84.55776999172642 15.056439562643106 H 0.0 **** 0.06
671 C 81.51847016063235 83.50062669292763 16.472133852720848 C 0.0 **** -0.24
672 H 80.54148281419546 83.22097906064138 16.07803956002557 H 0.0 **** 0.06
673 H 81.39735426036225 84.27766020604756 17.226424385801266 H 0.0 **** 0.06
674 H 82.14377465891553 83.87557593256074 15.661429971338727 H 0.0 **** 0.06
675 H 81.9920464703846 82.62803852461386 16.922065801185543 H 0.0 **** 0.06
676 C 106.46566482639193 26.69639748850713 52.52872681268403 C 0.0 **** -0.24
677 H 105.82217271289088 26.772044715733756 53.405426193210445 H 0.0 **** 0.06
678 H 106.02771345245702 25.99908501568646 51.815021509085256 H 0.0 **** 0.06
679 H 107.45043170499912 26.338088851709273 52.83028204992408 H 0.0 **** 0.06
680 H 106.56339972781504 27.678157149636405 52.06500893985756 H 0.0 **** 0.06
681 C 82.91473110504884 76.99743857834545 29.6159572371227 C 0.0 **** -0.24
682 H 83.2968011682579 77.57226389659567 28.77211143884847 H 0.0 **** 0.06
683 H 81.83590062746043 76.87547639712042 29.51304228702398 H 0.0 **** 0.06
684 H 83.1337408948132 77.52563276395614 30.544105405041847 H 0.0 **** 0.06
685 H 83.39142286813527 76.01716366442685 29.634053327198643 H 0.0 **** 0.06
686 C 75.6828632562561 40.538142695479166 16.411656271699428 C 0.0 **** -0.24
687 H 75.56497619884465 39.45991409777093 16.52182955070029 H 0.0 **** 0.06
688 H 74.94875264520371 41.049257548162984 17.035528598301397 H 0.0 **** 0.06
689 H 75.5298074575251 40.81663192338608 15.369200498497321 H 0.0 **** 0.06
690 H 76.68707109095342 40.827053389999655 16.72211663240938 H 0.0 **** 0.06
691 C 82.90393163905682 67.24637933350772 59.09816525354133 C 0.0 **** -0.24
692 H 82.88901832649634 67.3618748645867 60.182106113116994 H 0.0 **** 0.06
693 H 83.70509634322752 66.56356647704962 58.81651463461578 H 0.0 **** 0.06
694 H 83.07181993775765 68.21755622486842 58.631301864194036 H 0.0 **** 0.06
695 H 81.94770600340425 66.84332306114919 58.762800329653764 H 0.0 **** 0.06
696 C 23.847468918295334 3.4404166041744624 44.14972219971796 C 0.0 **** -0.24
697 H 24.10653719233747 2.830016257005825 45.01460624633967 H 0.0 **** 0.06
698 H 24.760456250084843 3.7824481749055536 43.66144259303679 H 0.0 **** 0.06
699 H 23.2636282676809 4.300912284457095 44.47477389563012 H 0.0 **** 0.06
700 H 23.26142092912403 2.846127855665353 43.448860578207515 H 0.0 **** 0.06
701 C 50.3950496440564 71.51457188300918 29.542601388449157 C 0.0 **** -0.24
702 H 51.361400083876994 71.2638993503262 29.978465376386396 H 0.0 **** 0.06
703 H 50.33361178242807 72.59223454217113 29.388581862081537 H 0.0 **** 0.06
704 H 49.59937381784244 71.19877373620022 30.217328665786226 H 0.0 **** 0.06
705 H 50.284417105824225 71.00360229398618 28.585980287811935 H 0.0 **** 0.06
706 C 13.703175114948124 30.763630943124042 72.9910969911515 C 0.0 **** -0.24
707 H 12.817075104517642 30.12790431347679 72.99801692160895 H 0.0 **** 0.06
708 H 13.41338397398789 31.791693113985843 73.20817221326305 H 0.0 **** 0.06
709 H 14.173752073377443 30.717720403255015 72.00832895601627 H 0.0 **** 0.06
710 H 14.405782686043324 30.415896236344906 73.74787999755054 H 0.0 **** 0.06
711 C 82.88696065797029 37.520021047191605 61.84753779421459 C 0.0 **** -0.24
712 H 83.21797956930106 36.6329790400951 61.307053407271326 H 0.0 **** 0.06
713 H 82.62225719393956 38.301422581689636 61.13449700761345 H 0.0 **** 0.06
714 H 83.69256416175051 37.873698910122705 62.49169569874243 H 0.0 **** 0.06
715 H 82.01754752928275 37.27277618760903 62.45514628058885 H 0.0 **** 0.06
716 C 29.57504224297444 54.3603097025962 72.27965912189973 C 0.0 **** -0.24
717 H 28.97448951851365 53.54818352416066 71.87035744268877 H 0.0 **** 0.06
718 H 29.76599124907424 55.09953145583265 71.50048123748729 H 0.0 **** 0.06
719 H 30.52253359709742 53.96399110548626 72.64357813010207 H 0.0 **** 0.06
720 H 29.037191423074944 54.83094536642747 73.10280429206739 H 0.0 **** 0.06
721 C 9.879006556185232 91.56366541351335 81.6878899807358 C 0.0 **** -0.24
722 H 10.662490676069837 91.0319471802043 81.1473543383322 H 0.0 **** 0.06
723 H 9.634993542689656 91.02036488936656 82.60144109970008 H 0.0 **** 0.06
724 H 8.99031351323707 91.63738033673005 81.05943927313191 H 0.0 **** 0.06
725 H 10.227982680548564 92.56482881968509 81.94110707293277 H 0.0 **** 0.06
726 C 0.12190014852498621 98.92728440762082 66.21255844241753 C 0.0 **** -0.24
727 H 0.6755696060979801 99.36051863455387 67.04590150508497 H 0.0 **** 0.06
728 H 0.558539970566045 99.26558648707802 65.27212990271161 H 0.0 **** 0.06
729 H -0.9198748080855239 99.24427544866464 66.26461640309142 H 0.0 **** 0.06
730 H 0.17447690916316105 97.8400547075307 66.26729999605183 H 0.0 **** 0.06
731 C 53.87434742763086 53.598712062153666 36.23588161999095 C 0.0 **** -0.24
732 H 53.365231514914036 52.794204918088056 35.70456376048607 H 0.0 **** 0.06
733 H 54.77429247319825 53.20737309450442 36.7104489240421 H 0.0 **** 0.06
734 H 53.20994691710138 54.00777967297186 36.99735326720004 H 0.0 **** 0.06
735 H 54.14646152722051 54.383841395676875 35.53076445859282 H 0.0 **** 0.06
736 C 8.718008996059893 44.55829636036785 63.210142357382985 C 0.0 **** -0.24
737 H 8.359770086169476 44.83131465429045 64.20285243500854 H 0.0 **** 0.06
738 H 8.651235166935635 43.476366161459396 63.0856239724066 H 0.0 **** 0.06
739 H 9.755029898886221 44.87435012898038 63.09846857584497 H 0.0 **** 0.06
740 H 8.104394913467445 45.04917806323792 62.455210398978856 H 0.0 **** 0.06
741 C 91.13138522257103 41.94846612526278 58.31584416782482 C 0.0 **** -0.24
742 H 91.96203385504654 41.94147369197421 57.60949270184207 H 0.0 **** 0.06
743 H 90.75543325059365 42.96594364893976 58.423756175438115 H 0.0 **** 0.06
744 H 91.47491562894146 41.58219879145061 59.283967902165585 H 0.0 **** 0.06
745 H 90.33498989005298 41.30298462548738 57.94594083475013 H 0.0 **** 0.06
746 C 70.34203982002342 27.710018127818444 21.844513868665466 C 0.0 **** -0.24
747 H 70.93323350822925 28.5780709604698 22.138248035365265 H 0.0 **** 0.06
748 H 71.0085492680511 26.907417323377615 21.52817778942632 H 0.0 **** 0.06
749 H 69.68203183694584 27.98159858102531 21.021061458470758 H 0.0 **** 0.06
750 H 69.74604683469207 27.373519055402653 22.692763311743125 H 0.0 **** 0.06
751 C 99.45991732959112 39.337059494378764 54.0048316092483 C 0.0 **** -0.24
752 H 99.49219630208106 38.328852974254396 53.59095347384107 H 0.0 **** 0.06
753 H 98.44109302883453 39.56968487750221 54.31656215406127 H 0.0 **** 0.06
754 H 99.78084834943328 40.051757276261114 53.24672160767659 H 0.0 **** 0.06
755 H 100.12672019586313 39.397381054224155 54.8662169808631 H 0.0 **** 0.06
756 C 82.42821650292208 63.33024303417415 101.41978198073863 C 0.0 **** -0.24
757 H 82.2116455978904 63.482928514543836 102.47660387649802 H 0.0 **** 0.06
758 H 81.49566011025766 63.16825554632535 100.87812887652126 H 0.0 **** 0.06
759 H 83.07216338217788 62.458438258347805 101.30343660066654 H 0.0 **** 0.06
760 H 82.93172950458103 64.21079807584204 101.02191540224098 H 0.0 **** 0.06
761 C 94.08421915169833 56.718343111310276 47.62612384328608 C 0.0 **** -0.24
762 H 93.71191723705797 55.84719398919583 47.086325801564726 H 0.0 **** 0.06
763 H 94.83027375118547 56.40101224154682 48.35482477965442 H 0.0 **** 0.06
764 H 93.2573772917849 57.20677997448473 48.14085319645292 H 0.0 **** 0.06
765 H 94.53703685768326 57.41534140088635 46.92120478422436 H 0.0 **** 0.06
766 C 83.3954851371538 108.97078068396438 79.88004649256814 C 0.0 **** -0.24
767 H 84.40611911911967 108.69157667304466 79.58293130153936 H 0.0 **** 0.06
768 H 83.04778594935885 109.79623660988257 79.2573697815719 H 0.0 **** 0.06
769 H 83.39546085447799 109.27915489844041 80.92503054762403 H 0.0 **** 0.06
770 H 82.73066337920784 108.1155942507155 79.75383773720489 H 0.0 **** 0.06
771 C 88.68558341943029 58.438667987868314 30.953871070693644 C 0.0 **** -0.24
772 H 88.35320625093044 58.97770476339184 31.84188078175236 H 0.0 **** 0.06
773 H 88.01897664107511 57.59555833313834 30.77074559829466 H 0.0 **** 0.06
774 H 89.70023937375493 58.07358051640543 31.109937625335427 H 0.0 **** 0.06
775 H 88.66946614112072 59.10931448788031 30.094530674122012 H 0.0 **** 0.06
776 C 40.01450813798937 4.124034343933005 107.24490075693853 C 0.0 **** -0.24
777 H 41.02977523581842 3.9547931517874986 107.6014304739019 H 0.0 **** 0.06
778 H 39.38417791366089 4.436475054048287 108.077153705896 H 0.0 **** 0.06
779 H 39.621838382012015 3.200696968885296 106.81780474450375 H 0.0 **** 0.06
780 H 40.021875809838946 4.902217611276086 106.48178352996382 H 0.0 **** 0.06
781 C 28.38277505706452 17.89723875369478 60.44946879476592 C 0.0 **** -0.24
782 H 29.3425487294167 18.40138708224518 60.33862510813833 H 0.0 **** 0.06
783 H 27.793610472381808 18.400618284562483 61.21630355836095 H 0.0 **** 0.06
784 H 28.549344938263076 16.860158438675313 60.741488161120316 H 0.0 **** 0.06
785 H 27.846171535795072 17.92612651197689 59.50098180736609 H 0.0 **** 0.06
786 C 52.29386912709754 98.98256648420065 54.76389900324597 C 0.0 **** -0.24
787 H 52.955277483738314 98.39674891084769 54.125811133884554 H 0.0 **** 0.06
788 H 51.59580194371364 99.54567155006532 54.14346741872885 H 0.0 **** 0.06
789 H 52.88575232312229 99.67261180643848 55.36413649777006 H 0.0 **** 0.06
790 H 51.73767354077438 98.3133775100666 55.42139885428571 H 0.0 **** 0.06
791 C 6.276620976074403 26.090453227520726 67.83742819773394 C 0.0 **** -0.24
792 H 6.266493893520609 25.059269559733167 68.1896582950989 H 0.0 **** 0.06
793 H 6.036823314227023 26.759217261501817 68.6636001488942 H 0.0 **** 0.06
794 H 5.537835907882302 26.21158127519834 67.04505137951409 H 0.0 **** 0.06
795 H 7.266885215269415 26.331300749753552 67.4498580244476 H 0.0 **** 0.06
796 C 86.02249863546683 9.149591095124038 57.86453125893351 C 0.0 **** -0.24
797 H 85.78819796620164 9.866584004694289 57.07713186655971 H 0.0 **** 0.06
798 H 86.91668964537052 8.589440002246633 57.58956466291883 H 0.0 **** 0.06
799 H 85.18618482486889 8.461442496393474 57.988144018401215 H 0.0 **** 0.06
800 H 86.19810343096134 9.680207049373436 58.80014551460681 H 0.0 **** 0.06
801 C 30.561911244887114 56.93988567840978 78.83235165382425 C 0.0 **** -0.24
802 H 31.496889712033877 56.40776161455463 79.00898591205168 H 0.0 **** 0.06
803 H 30.551312803181617 57.860551642973576 79.41536041709207 H 0.0 **** 0.06
804 H 29.723549372749773 56.30997721724418 79.13089164942858 H 0.0 **** 0.06
805 H 30.475233455247718 57.17958166003231 77.77250298772063 H 0.0 **** 0.06
806 C 67.49041561857842 107.36207542788834 69.17256567140697 C 0.0 **** -0.24
807 H 68.2970432591639 106.88349238723319 68.61760307086166 H 0.0 **** 0.06
808 H 66.53789285245318 107.1445417709343 68.68916946891858 H 0.0 **** 0.06
809 H 67.65081404572493 108.44023391109171 69.18947834354543 H 0.0 **** 0.06
810 H 67.47600517521192 106.98080514203203 70.19338234044841 H 0.0 **** 0.06
811 C 17.5610710591358 66.21912141164148 45.0255922404806 C 0.0 **** -0.24
812 H 17.77774907028939 66.74636717626805 45.95452491766372 H 0.0 **** 0.06
813 H 18.289725293548344 66.50522890911 44.26709511007791 H 0.0 **** 0.06
814 H 16.559396894517818 66.480717809771 44.683560633820676 H 0.0 **** 0.06
815 H 17.616984780110812 65.14335044085493 45.19681126973583 H 0.0 **** 0.06
816 C 88.85781495276953 18.339090866831242 8.100402039561033 C 0.0 **** -0.24
817 H 89.10404758788818 17.518893459449146 8.773970174374938 H 0.0 **** 0.06
818 H 89.58087045983766 18.36885945954677 7.284073020760019 H 0.0 **** 0.06
819 H 88.88925282725657 19.280933581853844 8.648561117209539 H 0.0 **** 0.06
820 H 87.85780976041931 18.188349319714973 7.693989712346806 H 0.0 **** 0.06
821 C 49.761290195647376 63.1014535372837 95.17563989387133 C 0.0 **** -0.24
822 H 49.50757645888655 63.366038890541944 96.2022013027032 H 0.0 **** 0.06
823 H 50.51909562472159 63.78851533478962 94.80054077829095 H 0.0 **** 0.06
824 H 48.869158982137435 63.16834138470696 94.5528170349923 H 0.0 **** 0.06
825 H 50.1481416747026 62.082918584797795 95.14776770738328 H 0.0 **** 0.06
826 C 104.24309703338605 90.88999123757708 102.26320976269363 C 0.0 **** -0.24
827 H 103.27086647199653 90.45694192945834 102.49943729773514 H 0.0 **** 0.06
828 H 104.33717006048238 91.00069774277446 101.18293631368323 H 0.0 **** 0.06
829 H 105.03176270145588 90.23375440262072 102.63163219094298 H 0.0 **** 0.06
830 H 104.329919679434 91.8666883732763 102.73825699051707 H 0.0 **** 0.06
831 C 75.2527082217382 37.55109240753481 7.399735757522308 C 0.0 **** -0.24
832 H 74.2466522034268 37.13294152717241 7.44882336338361 H 0.0 **** 0.06
833 H 75.23903660168699 38.461956240698804 6.801878326318217 H 0.0 **** 0.06
834 H 75.92479116738266 36.82513828122711 6.941052242782689 H 0.0 **** 0.06
835 H 75.59881467130992 37.78178876867404 8.406791292936646 H 0.0 **** 0.06
836 C 29.398640366338128 77.26031230252241 106.61837049472024 C 0.0 **** -0.24
837 H 30.21020154903664 77.58641168928881 105.9674173005605 H 0.0 **** 0.06
838 H 28.683596444822484 76.67439870777221 106.0403956943739 H 0.0 **** 0.06
839 H 28.898166221017334 78.13242906183655 107.0384863678857 H 0.0 **** 0.06
840 H 29.802339918470494 76.64882630860171 107.42413834579145 H 0.0 **** 0.06
841 C 109.64479837250082 78.90912525810216 52.261852243058385 C 0.0 **** -0.24
842 H 110.24973976412836 79.80812039656763 52.14920246899932 H 0.0 **** 0.06
843 H 108.7763833603498 78.97065481141357 51.60459432302508 H 0.0 **** 0.06
844 H 109.31229507627987 78.82133143516643 53.29631742292145 H 0.0 **** 0.06
845 H 110.2395625643002 78.03485229694269 51.99690555761733 H 0.0 **** 0.06
846 C 10.656840670947396 107.20541270400338 58.847157695160604 C 0.0 **** -0.24
847 H 9.701184595304586 107.7113198072417 58.986975060007126 H 0.0 **** 0.06
848 H 10.48007295073404 106.16555486688247 58.57058167512824 H 0.0 **** 0.06
849 H 11.226775045703913 107.24348854253189 59.77496067610795 H 0.0 **** 0.06
850 H 11.21733577681901 107.70236502802099 58.05518482506017 H 0.0 **** 0.06
851 C 61.86353135208568 1.3822102281766888 21.897946405899646 C 0.0 **** -0.24
852 H 62.61220326153434 2.019338081590689 22.368316299362643 H 0.0 **** 0.06
853 H 62.349091487601065 0.7158011395588915 21.185947390500566 H 0.0 **** 0.06
854 H 61.13429115370791 2.003476911964981 21.377073210771 H 0.0 **** 0.06
855 H 61.35731043439548 0.7924873200021807 22.661619512827087 H 0.0 **** 0.06
856 C 29.396973753092368 30.67253403772613 70.07768229099011 C 0.0 **** -0.24
857 H 29.041489215511632 30.3125228409466 69.11306424296541 H 0.0 **** 0.06
858 H 30.30890044858475 30.14012606451383 70.35014496730949 H 0.0 **** 0.06
859 H 28.632901231617552 30.49554158333209 70.83545753065113 H 0.0 **** 0.06
860 H 29.604647985024968 31.740264168895123 70.01314449651704 H 0.0 **** 0.06
861 C 49.69210409758443 18.980286421009282 105.01305983748134 C 0.0 **** -0.24
862 H 50.421996689956586 19.717516374902914 104.67832083517098 H 0.0 **** 0.06
863 H 49.33561992891248 19.247222253954362 106.00763595578013 H 0.0 **** 0.06
864 H 50.16028008397814 17.99619438195691 105.04615861763261 H 0.0 **** 0.06
865 H 48.85233438294682 18.95973333391572 104.31757881237294 H 0.0 **** 0.06
866 C 107.90813225094568 57.68883193258563 82.4450023838894 C 0.0 **** -0.24
867 H 108.71703588656491 58.01067479063721 83.09989962676951 H 0.0 **** 0.06
868 H 107.87920591681049 58.32832532899414 81.56178103393574 H 0.0 **** 0.06
869 H 106.95976782441902 57.76103357173241 82.9763489388015 H 0.0 **** 0.06
870 H 108.07633994333383 56.65566440809857 82.14062688613132 H 0.0 **** 0.06
871 C 41.84308099788424 36.900430310759646 59.551615247658106 C 0.0 **** -0.24
872 H 41.53369918647334 37.86011296681659 59.966234969018046 H 0.0 **** 0.06
873 H 41.43777533079225 36.09323203930694 60.163078041878464 H 0.0 **** 0.06
874 H 42.93090585855339 36.841177184876756 59.54687595753927 H 0.0 **** 0.06
875 H 41.468877862077406 36.80734626414318 58.531958060354214 H 0.0 **** 0.06
876 C 28.157532626058575 25.145675786296977 52.35585323718615 C 0.0 **** -0.24
877 H 27.570562209963867 24.30214680966688 51.992298572607126 H 0.0 **** 0.06
878 H 29.05748744630459 24.775685857355825 52.848375558201894 H 0.0 **** 0.06
879 H 27.564481024449073 25.720765646898087 53.06665476760935 H 0.0 **** 0.06
880 H 28.437699497877837 25.782485964310354 51.51669191952982 H 0.0 **** 0.06
881 C 105.91435197419071 100.76073803056087 48.57085899566039 C 0.0 **** -0.24
882 H 105.5284400083626 101.47749972745476 47.8465655693895 H 0.0 **** 0.06
883 H 105.29819386221877 99.86097311583512 48.554374208147294 H 0.0 **** 0.06
884 H 105.88661844572363 101.2012132183884 49.56756951363451 H 0.0 **** 0.06
885 H 106.94218208558483 100.50295315609591 48.31501407381876 H 0.0 **** 0.06
886 C 50.29613091994143 63.83558207545892 84.16996103372657 C 0.0 **** -0.24
887 H 50.96232133018328 63.10144984603212 83.71639227556074 H 0.0 **** 0.06
888 H 49.45826772454037 63.32114627969752 84.64254179368189 H 0.0 **** 0.06
889 H 49.920520107795504 64.5105622044818 83.40026187785364 H 0.0 **** 0.06
890 H 50.84198732725351 64.40728745339496 84.92000042691004 H 0.0 **** 0.06
891 C 57.75310271494184 37.74494511196903 86.17324168738958 C 0.0 **** -0.24
892 H 57.584979994545215 38.81995769493375 86.11274328020966 H 0.0 **** 0.06
893 H 57.579203291280976 37.407702966407186 87.19529018974012 H 0.0 **** 0.06
894 H 58.78084395306522 37.52080543812639 85.88587641701176 H 0.0 **** 0.06
895 H 57.067745316817614 37.23204102400757 85.49964096476577 H 0.0 **** 0.06
896 C 103.62014895333544 20.52574912982459 110.8568789183965 C 0.0 **** -0.24
897 H 103.97176594985086 19.526587310593925 110.597486163732 H 0.0 **** 0.06
898 H 103.36147455962166 21.06691712891154 109.94591172276705 H 0.0 **** 0.06
899 H 104.40784841321198 21.061360982451845 111.38707125510062 H 0.0 **** 0.06
900 H 102.74114458929131 20.446820931407615 111.49627084388577 H 0.0 **** 0.06
901 C 81.10396308071941 88.39177493008549 83.1907151325648 C 0.0 **** -0.24
902 H 80.50421792750888 87.76717920322676 83.85301667946459 H 0.0 **** 0.06
903 H 80.73071191226555 89.41587873189883 83.22160869730519 H 0.0 **** 0.06
904 H 81.03757232042454 88.0105239810747 82.17243163137982 H 0.0 **** 0.06
905 H 82.14326199284946 88.37377808339204 83.51802270313232 H 0.0 **** 0.06
906 C 63.623999097920375 56.22358589989264 15.156895031867265 C 0.0 **** -0.24
907 H 63.216727463991106 57.050461416268945 15.738123083125117 H 0.0 **** 0.06
908 H 64.43260304524756 56.58929018182977 14.52315258652365 H 0.0 **** 0.06
909 H 62.83850667034085 55.796051416051796 14.534007977642545 H 0.0 **** 0.06
910 H 64.00815921210179 55.458540585419996 15.832296480177462 H 0.0 **** 0.06
911 C 96.82332540502861 82.13210127382459 25.080786032309675 C 0.0 **** -0.24
912 H 97.01341819417536 81.97271377714614 26.142059669177215 H 0.0 **** 0.06
913 H 96.98690608616909 83.18145588497586 24.83625254235801 H 0.0 **** 0.06
914 H 95.79275426100119 81.86100664022112 24.851776859052535 H 0.0 **** 0.06
915 H 97.50074004581026 81.51166014522411 24.493576843611507 H 0.0 **** 0.06
916 C 99.05508067184473 36.641768471135634 5.217930524907331 C 0.0 **** -0.24
917 H 98.44690642518745 36.431467876132785 4.337810550244569 H 0.0 **** 0.06
918 H 98.57104562173973 37.41374300272079 5.817778750013218 H 0.0 **** 0.06
919 H 100.03930672723243 36.988532104171696 4.905177637990903 H 0.0 **** 0.06
920 H 99.16063559319244 35.73325135912424 5.8112670510971896 H 0.0 **** 0.06
921 C 65.48909788485565 62.68122211709606 96.00047518062345 C 0.0 **** -0.24
922 H 65.63039112293384 62.34982126820807 94.97158300680687 H 0.0 **** 0.06
923 H 66.32554649492383 63.315793776221874 96.29555312856331 H 0.0 **** 0.06
924 H 65.44095089041801 61.81304977731333 96.65775749647756 H 0.0 **** 0.06
925 H 64.56005969447335 63.24572321042998 96.0758071727378 H 0.0 **** 0.06
926 C 100.5992488480351 22.332229352415766 16.315644758270267 C 0.0 **** -0.24
927 H 100.57877997807012 21.24386343249172 16.35856288509725 H 0.0 **** 0.06
928 H 99.8984397456743 22.738139207863952 17.046226901890467 H 0.0 **** 0.06
929 H 100.31365727263102 22.662131138480134 15.316455240913566 H 0.0 **** 0.06
930 H 101.60469638653683 22.685770417091888 16.54139967703474 H 0.0 **** 0.06
931 C 9.752256498605476 78.7496127892374 87.87648330340875 C 0.0 **** -0.24
932 H 10.481716981176575 78.00914632173519 87.54818434032174 H 0.0 **** 0.06
933 H 9.345647101689195 79.26856338294323 87.00787088838814 H 0.0 **** 0.06
934 H 10.237303634321464 79.46977616584854 88.53550559687514 H 0.0 **** 0.06
935 H 8.944584463330543 78.25152998155284 88.41309564504257 H 0.0 **** 0.06
936 C 90.06216383854104 82.0319702094759 20.6816192005775 C 0.0 **** -0.24
937 H 90.99075462392369 82.37918982790944 20.22892608055804 H 0.0 **** 0.06
938 H 89.97541439568676 80.9534920976136 20.55148904978219 H 0.0 **** 0.06
939 H 89.21746548977683 82.52541176255448 20.201044009291664 H 0.0 **** 0.06
940 H 90.06528767134779 82.27005358932678 21.745943875556932 H 0.0 **** 0.06
941 C 88.44489207793495 16.43405587398594 109.41462813670714 C 0.0 **** -0.24
942 H 89.21809796318166 17.081635590244588 109.00133217113769 H 0.0 **** 0.06
943 H 87.77243686107971 17.02308709549851 110.03888980770294 H 0.0 **** 0.06
944 H 88.90931817409728 15.653341782013229 110.0171547382365 H 0.0 **** 0.06
945 H 87.88083597209666 15.977962431170369 108.60197582207448 H 0.0 **** 0.06
946 C 18.186955425507193 66.17613898663967 108.4314214510145 C 0.0 **** -0.24
947 H 17.980423605485868 66.40965722917991 109.47621629498582 H 0.0 **** 0.06
948 H 18.470582562831027 67.08834706352508 107.90571002002764 H 0.0 **** 0.06
949 H 17.29449030033186 65.75229867512422 107.97046829796443 H 0.0 **** 0.06
950 H 19.003026182809748 65.45524351865004 108.3760349132009 H 0.0 **** 0.06
951 C 68.91396542888589 59.95639563577021 43.35150312584716 C 0.0 **** -0.24
952 H 69.61202456728293 59.85708608159632 44.182973788931236 H 0.0 **** 0.06
953 H 68.84255387884443 61.004747261622015 43.06154510257767 H 0.0 **** 0.06
954 H 67.93144962058221 59.59668504617633 43.658031103534086 H 0.0 **** 0.06
955 H 69.26895578633403 59.368818787003875 42.5057321184143 H 0.0 **** 0.06
956 C 59.00239743772226 4.721584033121273 7.92978386281149 C 0.0 **** -0.24
957 H 57.94246680099676 4.557214117724328 8.124015609113485 H 0.0 **** 0.06
958 H 59.14725792191897 5.729032130579357 7.5401607881326385 H 0.0 **** 0.06
959 H 59.353589564082036 3.994190759468145 7.198262520143317 H 0.0 **** 0.06
960 H 59.563327234725726 4.605426011902722 8.856987428287567 H 0.0 **** 0.06
961 C 43.46067319282412 27.7653431530224 95.37780053506765 C 0.0 **** -0.24
962 H 44.15252392827375 26.933195431879994 95.51063937657835 H 0.0 **** 0.06
963 H 43.22072736320831 28.1973083434836 96.3500317506028 H 0.0 **** 0.06
964 H 42.5466706612298 27.4048170352051 94.90422607605444 H 0.0 **** 0.06
965 H 43.92216885021344 28.524144489611018 94.74630021979624 H 0.0 **** 0.06
966 C 30.41213356067057 59.0626261088037 18.955149936673422 C 0.0 **** -0.24
967 H 30.324529554202236 58.96992619707197 20.037792384573663 H 0.0 **** 0.06
968 H 31.211176271239644 59.765645471396255 18.715907347289544 H 0.0 **** 0.06
969 H 29.471380241337584 59.42788062902201 18.545362652693825 H 0.0 **** 0.06
970 H 30.642973669798707 58.08877859497383 18.524310979116137 H 0.0 **** 0.06
971 C 2.0387844458739632 90.11895439637789 0.3610552382110086 C 0.0 **** -0.24
972 H 1.7202353770944558 89.89552519074456 1.3795857041404815 H 0.0 **** 0.06
973 H 1.1614389807726004 90.23028381030105 -0.2771110088870046 H 0.0 **** 0.06
974 H 2.6585588976396064 89.30320367960897 -0.01204638982750339 H 0.0 **** 0.06
975 H 2.613304253101905 91.04437719238402 0.35567573348077985 H 0.0 **** 0.06
976 C 96.3599201677273 85.3724218434455 107.25606505933507 C 0.0 **** -0.24
977 H 96.80296647662269 85.81801566971973 106.36534203438555 H 0.0 **** 0.06
978 H 95.30372791365326 85.17347355798634 107.0746239159921 H 0.0 **** 0.06
979 H 96.46150253374552 86.06138073192082 108.09488690641246 H 0.0 **** 0.06
980 H 96.87196300321261 84.43856300195694 107.48775705423577 H 0.0 **** 0.06
981 C 27.480366056134855 100.47343624890036 8.959184493371865 C 0.0 **** -0.24
982 H 27.380804029019515 101.44088026439536 8.465981769882987 H 0.0 **** 0.06
983 H 28.535106016601958 100.27032945760979 9.148339764447073 H 0.0 **** 0.06
984 H 27.069999119271174 99.69483081205328 8.317404273844133 H 0.0 **** 0.06
985 H 26.937883073296888 100.48917360140553 9.904362215855258 H 0.0 **** 0.06
986 C 58.82610504183498 9.670185658391212 110.49700085567403 C 0.0 **** -0.24
987 H 59.064067799528004 10.150542033747087 109.54869721979213 H 0.0 **** 0.06
988 H 58.53595379573852 8.634884117337728 110.31718879177632 H 0.0 **** 0.06
989 H 58.003631391311615 10.199864811376585 110.97741678266003 H 0.0 **** 0.06
990 H 59.70211789480197 9.694231112153567 111.1463395756217 H 0.0 **** 0.06
991 C 88.46349907413233 81.74545108888177 62.309961113771294 C 0.0 **** -0.24
992 H 88.94399948826543 80.94074145755869 61.75467193126457 H 0.0 **** 0.06
993 H 88.62334670535805 81.5966963525045 63.377777175648475 H 0.0 **** 0.06
994 H 87.39367073816848 81.74401593716723 62.09854038214871 H 0.0 **** 0.06
995 H 88.89148674516196 82.70194055025061 62.008360542111745 H 0.0 **** 0.06
996 C 40.44210212323139 19.511789320632698 73.06452399802828 C 0.0 **** -0.24
997 H 41.21338496428274 19.636782579952783 72.30480574134984 H 0.0 **** 0.06
998 H 40.766516485834416 19.984456987501034 73.9921559550809 H 0.0 **** 0.06
999 H 40.27254810346773 18.448951478502643 73.23803931970721 H 0.0 **** 0.06
1000 H 39.51716477187273 19.976540309026806 72.72369885268125 H 0.0 **** 0.06
1001 C 20.986567127466557 90.92746183312909 1.8840394958078264 C 0.0 **** -0.24
1002 H 20.308562009367787 91.0361903577849 1.0374956043760335 H 0.0 **** 0.06
1003 H 20.481801868291058 90.38915728062744 2.6868730328804986 H 0.0 **** 0.06
1004 H 21.28373286820862 91.91411793656067 2.2397495723442375 H 0.0 **** 0.06
1005 H 21.870188091345195 90.37148749736369 1.5729577728658626 H 0.0 **** 0.06
1006 C 74.84071179234826 42.30280633930625 33.280668891560964 C 0.0 **** -0.24
1007 H 74.06199399754126 42.57600616029519 32.56846326575476 H 0.0 **** 0.06
1008 H 75.76183198293563 42.82946710898524 33.031074381373884 H 0.0 **** 0.06
1009 H 75.01259765071023 41.22717950317445 33.23512134958571 H 0.0 **** 0.06
1010 H 74.52543063752802 42.57911780371926 34.28636820323612 H 0.0 **** 0.06
1011 C 35.67603699029132 104.4966410037149 74.72559073911756 C 0.0 **** -0.24
1012 H 35.99270744325827 104.06490187981524 73.77652145628736 H 0.0 **** 0.06
1013 H 36.55289541056578 104.72985098909729 75.32879613343334 H 0.0 **** 0.06
1014 H 35.04742694223643 103.78258041083001 75.25801565396995 H 0.0 **** 0.06
1015 H 35.110361954486166 105.4098480673276 74.53881268014197 H 0.0 **** 0.06
1016 C 84.67117326463114 79.98351058765795 93.30539071958796 C 0.0 **** -0.24
1017 H 85.41056538260227 80.17949107378757 94.08139283843985 H 0.0 **** 0.06
1018 H 83.67196417083773 79.9975544738688 93.74211307552511 H 0.0 **** 0.06
1019 H 84.86034143690469 79.00590483640622 92.8627421574298 H 0.0 **** 0.06
1020 H 84.74172467633937 80.75095260764033 92.53432933719998 H 0.0 **** 0.06
1021 C 17.22296800017375 67.50356480755758 96.02920039770987 C 0.0 **** -0.24
1022 H 16.79772794446967 68.49040587826846 95.84268213145026 H 0.0 **** 0.06
1023 H 16.423968594467055 66.80477046031302 96.27609870723322 H 0.0 **** 0.06
1024 H 17.925270724341033 67.56241533487548 96.86018766560841 H 0.0 **** 0.06
1025 H 17.74507541238978 67.15942199178252 95.13573913370251 H 0.0 **** 0.06
1026 C 39.82064423302364 101.52263420394598 52.25269188397124 C 0.0 **** -0.24
1027 H 39.411033894073114 100.68171283970548 51.692002052465796 H 0.0 **** 0.06
1028 H 40.85779376131808 101.68412160581676 51.95804957320183 H 0.0 **** 0.06
1029 H 39.77510971165265 101.30317947584291 53.31916203847362 H 0.0 **** 0.06
1030 H 39.23776448018532 102.41837485377292 52.04098405551895 H 0.0 **** 0.06
1031 C 74.17663249718157 91.16595023720865 94.13404131544792 C 0.0 **** -0.24
1032 H 74.19935458850912 91.25942937896835 93.04823527681933 H 0.0 **** 0.06
1033 H 73.18865275512516 91.44238965078964 94.50157177838042 H 0.0 **** 0.06
1034 H 74.92516137309448 91.82845205899872 94.56997056679975 H 0.0 **** 0.06
1035 H 74.39515339991539 90.13615028080517 94.41440711792401 H 0.0 **** 0.06
1036 C 101.93755491532096 27.648223611140224 38.478249142579216 C 0.0 **** -0.24
1037 H 101.9316916014925 27.36371277971648 39.5313377923855 H 0.0 **** 0.06
1038 H 101.45695764788877 28.620178603113175 38.362546057125314 H 0.0 **** 0.06
1039 H 101.39549770366278 26.902688010831042 37.897527205040376 H 0.0 **** 0.06
1040 H 102.9665730022283 27.70697158541799 38.12479788129764 H 0.0 **** 0.06
1041 C 19.891364026078406 110.06965858869296 98.08616076568106 C 0.0 **** -0.24
1042 H 18.89753998574014 109.72109759817312 98.36592381780252 H 0.0 **** 0.06
1043 H 20.06837094534751 111.05299459780991 98.52307985944131 H 0.0 **** 0.06
1044 H 19.960848731813485 110.13581231658304 97.00076272636014 H 0.0 **** 0.06
1045 H 20.63940102469735 109.36819926816094 98.4559821757529 H 0.0 **** 0.06
1046 C 111.60975254120183 64.00043569404872 6.402306233969114 C 0.0 **** -0.24
1047 H 110.7515624094429 64.65372149445437 6.559091872242732 H 0.0 **** 0.06
1048 H 112.44918184987642 64.35390682082328 7.002098746305457 H 0.0 **** 0.06
1049 H 111.88612512883338 64.01004374285347 5.3481851583911055 H 0.0 **** 0.06
1050 H 111.35167042192381 62.98397851629573 6.700726838824901 H 0.0 **** 0.06
1051 C 90.04579598398075 56.92381402870535 34.745017288073875 C 0.0 **** -0.24
1052 H 89.12818849760498 57.44662934197538 34.475404538431256 H 0.0 **** 0.06
1053 H 89.80798059005767 55.902220966196865 35.04253346919049 H 0.0 **** 0.06
1054 H 90.5286805734955 57.44131773411908 35.573096812293706 H 0.0 **** 0.06
1055 H 90.71789326770522 56.90527522063422 33.8870924994174 H 0.0 **** 0.06
1056 C 78.91537791486991 21.624385898120806 6.709618373980248 C 0.0 **** -0.24
1057 H 79.14158971296789 21.83310706359424 5.66328708369285 H 0.0 **** 0.06
1058 H 79.71282220966538 22.019521187034513 7.339022135723127 H 0.0 **** 0.06
1059 H 78.83574724704147 20.54762321258795 6.8558558901702895 H 0.0 **** 0.06
1060 H 77.97116993949535 22.098636626553315 6.978530948277154 H 0.0 **** 0.06
1061 C 7.553557919184769 107.63695249953543 82.6863446307986 C 0.0 **** -0.24
1062 H 8.390297821132947 107.13856002522232 82.19620107471718 H 0.0 **** 0.06
1063 H 7.441828402303358 108.64279626759705 82.28020022432878 H 0.0 **** 0.06
1064 H 7.744273422467288 107.69628044221278 83.75742078339408 H 0.0 **** 0.06
1065 H 6.639355589612535 107.0703715235698 82.50964861429856 H 0.0 **** 0.06
1066 C 5.549323123547241 79.76960760390077 49.76503492243943 C 0.0 **** -0.24
1067 H 4.494731495663508 79.7929785621453 49.492301299335736 H 0.0 **** 0.06
1068 H 6.143975329326123 80.18448973073916 48.95056759895973 H 0.0 **** 0.06
1069 H 5.854348829282472 78.7400824271061 49.95002834629096 H 0.0 **** 0.06
1070 H 5.705077004117475 80.3619834310646 50.6669667540123 H 0.0 **** 0.06
1071 C 111.6093859971154 63.248070460745055 82.67117589788174 C 0.0 **** -0.24
1072 H 111.29681335415214 63.71970756533182 81.73888986768543 H 0.0 **** 0.06
1073 H 112.67706697642558 63.03252444617925 82.62756806397019 H 0.0 **** 0.06
1074 H 111.05528880540098 62.31938870543161 82.8110399107712 H 0.0 **** 0.06
1075 H 111.40705877089587 63.92100369316108 83.50418065389775 H 0.0 **** 0.06
1076 C 31.928576639103255 6.855261515444056 25.23631850700184 C 0.0 **** -0.24
1077 H 32.864590001479456 7.094586816396799 24.732736624374695 H 0.0 **** 0.06
1078 H 31.208755234912246 6.484759326055311 24.507307811883834 H 0.0 **** 0.06
1079 H 31.53421927169353 7.751853265599038 25.715261017621344 H 0.0 **** 0.06
1080 H 32.1086534938147 6.089744544543038 25.992050977463578 H 0.0 **** 0.06
1081 C 100.66740259571205 13.993204024172485 78.86906320268508 C 0.0 **** -0.24
1082 H 100.58992416295789 13.0975809798191 78.25334183989867 H 0.0 **** 0.06
1083 H 99.76787270300727 14.09443115934431 79.47718119425451 H 0.0 **** 0.06
1084 H 100.7734906355667 14.867739792451914 78.22783090550803 H 0.0 **** 0.06
1085 H 101.53859371695879 13.912011167102946 79.51985287387981 H 0.0 **** 0.06
1086 C 95.32965482495362 58.63038488388298 4.597157452505485 C 0.0 **** -0.24
1087 H 96.25380678367696 59.20133618857312 4.683483115370279 H 0.0 **** 0.06
1088 H 94.94519219706046 58.41019399264968 5.593104165292232 H 0.0 **** 0.06
1089 H 95.52770514293596 57.69722891357037 4.069152305267664 H 0.0 **** 0.06
1090 H 94.59326142038256 59.21242556752185 4.042641618200605 H 0.0 **** 0.06
1091 C 71.39110641061541 88.10997304774975 18.529303400105846 C 0.0 **** -0.24
1092 H 70.72074021525788 87.95930276513317 17.683191106225365 H 0.0 **** 0.06
1093 H 71.99466881959108 89.00210374679966 18.360645005913966 H 0.0 **** 0.06
1094 H 72.04392595732634 87.24279408173689 18.633513393806084 H 0.0 **** 0.06
1095 H 70.80467703166366 88.23329087850897 19.439607561590492 H 0.0 **** 0.06
1096 C 74.03689929982852 46.96542574110276 36.416691988661974 C 0.0 **** -0.24
1097 H 73.48241072708953 46.14670254611417 36.87599382581466 H 0.0 **** 0.06
1098 H 74.83958876648768 47.28003791498321 37.08466224828347 H 0.0 **** 0.06
1099 H 73.36283809740837 47.803339187894665 36.236961696006176 H 0.0 **** 0.06
1100 H 74.46156503590532 46.63141085776488 35.47038631910034 H 0.0 **** 0.06
1101 C 59.39560456954001 93.3534840694517 32.11610826156547 C 0.0 **** -0.24
1102 H 58.94211681425611 93.47654531239115 33.09937890000799 H 0.0 **** 0.06
1103 H 59.851581350681386 92.36592533964674 32.04748386169135 H 0.0 **** 0.06
1104 H 60.15870397904547 94.11785893600847 31.971102341968844 H 0.0 **** 0.06
1105 H 58.628753113481594 93.45461751083553 31.34801173762375 H 0.0 **** 0.06
1106 C 104.97250456235474 8.634757362878133 2.9053897311482793 C 0.0 **** -0.24
1107 H 104.64495161358477 7.761645490714258 2.340870355753724 H 0.0 **** 0.06
1108 H 105.72344821812564 8.334764835633706 3.6361985248611113 H 0.0 **** 0.06
1109 H 104.11869461566295 9.075075372161493 3.42111258040514 H 0.0 **** 0.06
1110 H 105.40215316112457 9.368971613995583 2.2227712493143432 H 0.0 **** 0.06
1111 C 47.678974030316525 4.2632551456712235 109.50957113771813 C 0.0 **** -0.24
1112 H 48.34714165493115 4.253287138041287 110.37126081971056 H 0.0 **** 0.06
1113 H 47.957237511518905 5.081648979586191 108.84405970213112 H 0.0 **** 0.06
1114 H 46.652688892837766 4.403136161246465 109.8481807547017 H 0.0 **** 0.06
1115 H 47.75973317999558 3.3169751870145774 108.97505306956944 H 0.0 **** 0.06
1116 C 40.66829252810365 12.65892419693742 102.01119841190533 C 0.0 **** -0.24
1117 H 41.23156359160134 13.503748731150353 101.61559056134942 H 0.0 **** 0.06
1118 H 40.053947188238084 12.991876981455732 102.84864436296056 H 0.0 **** 0.06
1119 H 41.36002793600085 11.887811909753708 102.35123575063787 H 0.0 **** 0.06
1120 H 40.026254037070714 12.252147594546074 101.22902206373215 H 0.0 **** 0.06
1121 C 38.57674252400773 67.63413528448044 37.5749930524446 C 0.0 **** -0.24
1122 H 39.03434428162069 66.9997204765026 38.334337436943855 H 0.0 **** 0.06
1123 H 39.018418740603295 68.62988482783723 37.620274252704846 H 0.0 **** 0.06
1124 H 37.504547453759756 67.70347043094205 37.756992300307175 H 0.0 **** 0.06
1125 H 38.75190347375934 67.20404289447913 36.58916318147995 H 0.0 **** 0.06
1126 C 97.85986696447432 61.99247733366644 60.46943475237999 C 0.0 **** -0.24
1127 H 98.38553369232554 61.03862988486608 60.42328352876985 H 0.0 **** 0.06
1128 H 96.91126499108165 61.909981225368796 59.936764866279496 H 0.0 **** 0.06
1129 H 98.47072924988962 62.76752216989465 60.006303914365255 H 0.0 **** 0.06
1130 H 97.67044145851884 62.25197759898384 61.5106652450694 H 0.0 **** 0.06
1131 C 43.1113877145563 35.05974484020675 21.874651728684455 C 0.0 **** -0.24
1132 H 43.14566477144021 35.78006933529434 21.05820147819884 H 0.0 **** 0.06
1133 H 43.94203863927116 35.24372747318432 22.55696756061741 H 0.0 **** 0.06
1134 H 43.18905391252072 34.04923447478404 21.471249628384612 H 0.0 **** 0.06
1135 H 42.168879917242975 35.164223687748006 22.412049726636837 H 0.0 **** 0.06
1136 C 93.33850611843798 3.7279129895360654 102.92318201313799 C 0.0 **** -0.24
1137 H 94.06356708837112 3.913503841930293 102.13075787508254 H 0.0 **** 0.06
1138 H 93.80153202177735 3.9194248014271125 103.8910428567876 H 0.0 **** 0.06
1139 H 93.00753218587852 2.689763174346183 102.8769253091217 H 0.0 **** 0.06
1140 H 92.4809475375931 4.387419587944464 102.79280688404685 H 0.0 **** 0.06
1141 C 2.3465728505285597 18.332036757036377 88.90477677152793 C 0.0 **** -0.24
1142 H 2.5728527994785964 17.33984045468904 88.51424216866181 H 0.0 **** 0.06
1143 H 3.060007583632995 18.58424319044829 89.68957305651676 H 0.0 **** 0.06
1144 H 1.3364687384405443 18.339305913045763 89.31503676759178 H 0.0 **** 0.06
1145 H 2.4170745183308497 19.063406132063903 88.09985334464574 H 0.0 **** 0.06
1146 C 62.087295352320155 95.14784680402019 84.9300355930352 C 0.0 **** -0.24
1147 H 61.63348512872193 94.57275981171506 84.1220196869258 H 0.0 **** 0.06
1148 H 62.7336986634287 94.49763834731078 85.51949730533147 H 0.0 **** 0.06
1149 H 61.304721537806984 95.55862365461863 85.56695624839594 H 0.0 **** 0.06
1150 H 62.676479957615356 95.96190057058544 84.50818332326196 H 0.0 **** 0.06
1151 C 28.633160486958957 55.10509785694387 17.779069784321763 C 0.0 **** -0.24
1152 H 29.52355611343731 54.51341714409085 17.565289570368634 H 0.0 **** 0.06
1153 H 27.744092266188147 54.52669642419551 17.526305239264133 H 0.0 **** 0.06
1154 H 28.65357085097503 56.019935272986515 17.187266371816378 H 0.0 **** 0.06
1155 H 28.612318515780316 55.35924791692162 18.83914987012386 H 0.0 **** 0.06
1156 C 56.35033298570913 91.16677376868714 111.50043037381033 C 0.0 **** -0.24
1157 H 56.483430520859116 90.46818349850449 110.67388145391507 H 0.0 **** 0.06
1158 H 55.31890756001922 91.51992667269849 111.51611625839051 H 0.0 **** 0.06
1159 H 57.02344801604761 92.01475178507559 111.37111342563745 H 0.0 **** 0.06
1160 H 56.57619896680073 90.66417299004357 112.44136525755574 H 0.0 **** 0.06
1161 C 80.9441509107422 44.670045431309575 36.1559961619391 C 0.0 **** -0.24
1162 H 81.98516496506087 44.95971220152856 36.01135759407643 H 0.0 **** 0.06
1163 H 80.90053436414297 43.74609899074106 36.73248462763746 H 0.0 **** 0.06
1164 H 80.47121116676848 44.51642149194207 35.18643335871846 H 0.0 **** 0.06
1165 H 80.4192803766557 45.46019244384618 36.69460187456883 H 0.0 **** 0.06
1166 C 11.28659571642865 30.347533576978208 111.98932904063338 C 0.0 **** -0.24
1167 H 10.708633400447738 29.61369122337007 111.42714812670843 H 0.0 **** 0.06
1168 H 11.231927341820352 30.1162137152142 113.05242818898967 H 0.0 **** 0.06
1169 H 10.879359185723132 31.34233428235764 111.81150525992953 H 0.0 **** 0.06
1170 H 12.325581278428189 30.316622357329777 111.66297827402894 H 0.0 **** 0.06
1171 C 73.37957294987507 97.37991711458042 70.20579459954064 C 0.0 **** -0.24
1172 H 73.77376170817664 97.23107307834755 71.21174148824215 H 0.0 **** 0.06
1173 H 72.64785264580257 98.18678182013787 70.21917553348794 H 0.0 **** 0.06
1174 H 72.90163469988715 96.46141005024106 69.86451433761533 H 0.0 **** 0.06
1175 H 74.19526382092653 97.63792509094628 69.53054156218369 H 0.0 **** 0.06
1176 C 53.899450830742886 54.64748079185721 90.7914112876309 C 0.0 **** -0.24
1177 H 53.437688982659886 53.81908111538912 91.32930198353947 H 0.0 **** 0.06
1178 H 54.61291259066326 55.15169912661549 91.4436502089251 H 0.0 **** 0.06
1179 H 53.12937457989387 55.35275526278094 90.48153585355439 H 0.0 **** 0.06
1180 H 54.41756441075051 54.26572334506013 89.91185688774104 H 0.0 **** 0.06
1181 C 72.58730845378659 20.027636555000242 26.215609556379363 C 0.0 **** -0.24
1182 H 72.62147140586023 20.822486567332675 26.9616972357245 H 0.0 **** 0.06
1183 H 73.26287658257411 19.225150736104013 26.509462453976198 H 0.0 **** 0.06
1184 H 72.89286478065117 20.425164088932775 25.247872211036068 H 0.0 **** 0.06
1185 H 71.5709429186926 19.640281684335122 26.14459060091329 H 0.0 **** 0.06
1186 C 68.7862700442802 19.87683988589987 87.42209506816022 C 0.0 **** -0.24
1187 H 69.70738760897893 19.59825350189942 87.93362847613648 H 0.0 **** 0.06
1188 H 68.48747665519798 19.072236932384655 86.7497870887037 H 0.0 **** 0.06
1189 H 68.95198774672392 20.788573118369555 86.84839956435772 H 0.0 **** 0.06
1190 H 68.00035133661657 20.047382963904226 88.15819578223721 H 0.0 **** 0.06
1191 C 18.738186123097563 2.4954965158160007 25.320187149441594 C 0.0 **** -0.24
1192 H 19.13694453699921 1.531818529775137 25.00251611772066 H 0.0 **** 0.06
1193 H 18.85108868782558 2.5962053414965 26.399742217895408 H 0.0 **** 0.06
1194 H 17.68265887699701 2.556092005238469 25.057121098181398 H 0.0 **** 0.06
1195 H 19.283789957848995 3.295662224453906 24.82104325567242 H 0.0 **** 0.06
1196 C 106.63304076457294 49.9123957992947 47.5258907666797 C 0.0 **** -0.24
1197 H 106.4130147102066 48.85690052352493 47.686254894119884 H 0.0 **** 0.06
1198 H 107.31829361312546 50.017766942760375 46.68502762443391 H 0.0 **** 0.06
1199 H 107.0916758718677 50.327627424659056 48.423568299493404 H 0.0 **** 0.06
1200 H 105.70823666119486 50.44684401709668 47.31041961203103 H 0.0 **** 0.06
1201 C 50.84765681170404 25.347146245889743 97.02670558733644 C 0.0 **** -0.24
1202 H 49.81895239512113 25.0597529909723 96.80616804566665 H 0.0 **** 0.06
1203 H 51.52426415118839 24.57027920853683 96.67033426905533 H 0.0 **** 0.06
1204 H 50.96807122727489 25.467871861738427 98.10294814479727 H 0.0 **** 0.06
1205 H 51.07772674347012 26.287575256260887 96.52650316748537 H 0.0 **** 0.06
1206 C 10.90980931958002 89.77438337543032 45.46192221712269 C 0.0 **** -0.24
1207 H 10.327768965832348 90.07317593355856 44.58979753879868 H 0.0 **** 0.06
1208 H 11.628372270882721 90.55743772925385 45.70378281344834 H 0.0 **** 0.06
1209 H 11.441115348643478 88.84848197095891 45.24351471769549 H 0.0 **** 0.06
1210 H 10.241625754621197 89.61895642968148 46.30844777988035 H 0.0 **** 0.06
1211 C 23.51565655272629 111.55682885298364 99.43134421774158 C 0.0 **** -0.24
1212 H 24.217839663086703 110.77562325494183 99.14092028728246 H 0.0 **** 0.06
1213 H 22.563603835524194 111.39595353913825 98.92365803896195 H 0.0 **** 0.06
1214 H 23.917881066283247 112.52996313916358 99.14941071410675 H 0.0 **** 0.06
1215 H 23.36192177052434 111.52571300058791 100.50994136353233 H 0.0 **** 0.06
1216 C 1.5434246750725293 17.623266755273278 100.59513977853405 C 0.0 **** -0.24
1217 H 1.9875390103571249 16.90605802612859 99.90472939585689 H 0.0 **** 0.06
1218 H 2.300982504201187 18.34199918644194 100.90795159102194 H 0.0 **** 0.06
1219 H 1.1578142884997078 17.096896080753908 101.46780918198286 H 0.0 **** 0.06
1220 H 0.7272365966119168 18.148134916328587 100.09707159482599 H 0.0 **** 0.06
1221 C 83.55840769956808 76.43980571323902 84.2340199515939 C 0.0 **** -0.24
1222 H 83.41485287634049 77.44358310125531 84.63451887121735 H 0.0 **** 0.06
1223 H 84.54530118253206 76.36930906543557 83.77803333476777 H 0.0 **** 0.06
1224 H 82.79458275309639 76.23628255804852 83.48388254073186 H 0.0 **** 0.06
1225 H 83.47814110302863 75.7119365251495 85.04226569846594 H 0.0 **** 0.06
1226 C 56.49273162133562 63.031275076796284 93.8601142402203 C 0.0 **** -0.24
1227 H 57.339354865142866 62.54131824995465 94.34170412562801 H 0.0 **** 0.06
1228 H 56.08085821389869 62.37486110800567 93.09351304477934 H 0.0 **** 0.06
1229 H 56.8257107913135 63.96277741067592 93.40266408040065 H 0.0 **** 0.06
1230 H 55.725853713865035 63.24632634631501 94.60561590402375 H 0.0 **** 0.06
1231 C 88.21407393301374 46.17812183015411 78.82668693733584 C 0.0 **** -0.24
1232 H 87.26280709098751 46.708615404495106 78.86734829373589 H 0.0 **** 0.06
1233 H 88.68560657050256 46.35286993832477 77.85943439517996 H 0.0 **** 0.06
1234 H 88.03936394353352 45.11034441460333 78.95838050277084 H 0.0 **** 0.06
1235 H 88.8663529856089 46.54105087674367 79.6211873792457 H 0.0 **** 0.06
1236 C 55.32457646350912 51.989568655214235 102.35672691265708 C 0.0 **** -0.24
1237 H 56.28705501505473 52.495077000663684 102.4412774542318 H 0.0 **** 0.06
1238 H 55.35169910472902 51.29517162807032 101.51682779076086 H 0.0 **** 0.06
1239 H 54.53917949100722 52.727288735478304 102.19315107896244 H 0.0 **** 0.06
1240 H 55.121637959434906 51.44053790991115 103.27624993911465 H 0.0 **** 0.06
1241 C 68.29254080293424 99.64121409196079 5.4922428397541605 C 0.0 **** -0.24
1242 H 67.45410066206603 99.4949435498956 4.811022267942169 H 0.0 **** 0.06
1243 H 69.18283018312968 99.16611728887156 5.07815186739629 H 0.0 **** 0.06
1244 H 68.05816879946798 99.1944404036731 6.458350190767893 H 0.0 **** 0.06
1245 H 68.47534874113887 100.70796395220245 5.619719723876887 H 0.0 **** 0.06
1246 C 35.32536454356962 34.859150627049544 5.083625799370449 C 0.0 **** -0.24
1247 H 35.801185863459324 35.2713080399416 5.973783515668192 H 0.0 **** 0.06
1248 H 35.49124980216703 33.782448341070186 5.048502381687095 H 0.0 **** 0.06
1249 H 35.753603398341426 35.32321742076421 4.194967313652427 H 0.0 **** 0.06
1250 H 34.255066793693544 35.06158832910549 5.118267844793076 H 0.0 **** 0.06
1251 C 54.12769499311031 31.43875343055288 36.00652247145251 C 0.0 **** -0.24
1252 H 54.19862705627244 30.805486484378832 35.12197398286389 H 0.0 **** 0.06
1253 H 54.56682085546743 30.92145487929332 36.86015420299066 H 0.0 **** 0.06
1254 H 53.08018437260728 31.658196026691428 36.213459286364355 H 0.0 **** 0.06
1255 H 54.665397453103736 32.37090491408907 35.8295644639868 H 0.0 **** 0.06
1256 C 46.474871502056004 70.33185956518486 15.7043680427977 C 0.0 **** -0.24
1257 H 45.996537833667105 71.27556987307511 15.442251378161167 H 0.0 **** 0.06
1258 H 46.83964757406906 70.38254944702899 16.73058409198949 H 0.0 **** 0.06
1259 H 47.31019802246837 70.14855054760906 15.029504556638685 H 0.0 **** 0.06
1260 H 45.75066488279808 69.52100861677926 15.615115564328583 H 0.0 **** 0.06
1261 C 64.31487435282091 66.81287737783856 82.72248796839213 C 0.0 **** -0.24
1262 H 63.43175269838624 67.03598614740483 83.32180011817564 H 0.0 **** 0.06
1263 H 65.20264713179097 66.85399836246069 83.35472687084393 H 0.0 **** 0.06
1264 H 64.40470112527714 67.54696794198227 81.92109502739245 H 0.0 **** 0.06
1265 H 64.22035428180513 65.81553229578284 82.29254709500032 H 0.0 **** 0.06
1266 C 0.18390523451603258 69.56929318685528 87.7048056570377 C 0.0 **** -0.24
1267 H -0.8303414325391145 69.38913203887631 87.34700807519275 H 0.0 **** 0.06
1268 H 0.8771850465585658 69.5277366052972 86.86510898222997 H 0.0 **** 0.06
1269 H 0.4514181154965513 68.80634529639448 88.4368144297471 H 0.0 **** 0.06
1270 H 0.23459062641148876 70.55320968774163 88.17117107508261 H 0.0 **** 0.06
1271 C 38.777630605193785 62.179553823274915 102.30856587640923 C 0.0 **** -0.24
1272 H 39.577927411723984 61.47903867554007 102.54618513872055 H 0.0 **** 0.06
1273 H 38.643041748190974 62.22195821872694 101.22764168468376 H 0.0 **** 0.06
1274 H 39.03848847623587 63.17022690394927 102.68167235086526 H 0.0 **** 0.06
1275 H 37.85205790858469 61.84643404311021 102.77792584119669 H 0.0 **** 0.06
1276 C 8.178529005228143 21.807537964561902 36.74726763534588 C 0.0 **** -0.24
1277 H 8.39530077724811 22.783721183516235 37.17880627881011 H 0.0 **** 0.06
1278 H 7.113884268439051 21.594383954339264 36.84634526676994 H 0.0 **** 0.06
1279 H 8.752264193814028 21.042161807871935 37.270924702045136 H 0.0 **** 0.06
1280 H 8.4523372458695 21.80779211265792 35.69227883678529 H 0.0 **** 0.06
1281 C 34.93997767202927 55.00439779125293 16.321694683823097 C 0.0 **** -0.24
1282 H 34.789708058568806 55.34049334349044 15.295764758785296 H 0.0 **** 0.06
1283 H 34.56119722433124 55.76014175965196 17.010105056172165 H 0.0 **** 0.06
1284 H 36.00440917803252 54.85028611468215 16.500813616894646 H 0.0 **** 0.06
1285 H 34.40547993456312 54.068492307050576 16.479147490475015 H 0.0 **** 0.06
1286 C 5.519420162874697 110.84086811224832 65.05339163341787 C 0.0 **** -0.24
1287 H 5.4425146629058645 109.96462373390216 64.4095207350706 H 0.0 **** 0.06
1288 H 4.539367945977338 111.31057950603274 65.1462051108737 H 0.0 **** 0.06
1289 H 6.22356677829292 111.5499603877061 64.61941581115363 H 0.0 **** 0.06
1290 H 5.871373620006066 110.5362845770189 66.03950525680605 H 0.0 **** 0.06
1291 C 112.24149482707642 55.86631057984124 71.50923905436056 C 0.0 **** -0.24
1292 H 112.38769901974706 56.83131687367543 71.9951882429288 H 0.0 **** 0.06
1293 H 112.87937403786637 55.120210113748215 71.98488671043032 H 0.0 **** 0.06
1294 H 112.50078496490241 55.947431914744584 70.45369164334238 H 0.0 **** 0.06
1295 H 111.19802878555612 55.56647592682293 71.60562985107654 H 0.0 **** 0.06
1296 C 11.872285206555514 32.24350837751038 78.2050718222084 C 0.0 **** -0.24
1297 H 12.894778729154037 31.904270202100548 78.37248112479043 H 0.0 **** 0.06
1298 H 11.229756619490121 31.38235381350512 78.0232802217468 H 0.0 **** 0.06
1299 H 11.84595378498609 32.90672558279408 77.34045920101826 H 0.0 **** 0.06
1300 H 11.520198203989526 32.781223510439645 79.0855890484915 H 0.0 **** 0.06
1301 C 46.37002822961685 37.26638607134278 40.40185206100733 C 0.0 **** -0.24
1302 H 45.725963749639206 37.40991417255391 39.534370066653665 H 0.0 **** 0.06
1303 H 47.37114782652688 37.63313412641212 40.17407840987887 H 0.0 **** 0.06
1304 H 46.417073003947664 36.206223573624804 40.647914203640866 H 0.0 **** 0.06
1305 H 45.963897039170746 37.81887788910407 41.24960124596738 H 0.0 **** 0.06
1306 C 5.789682962730753 33.53921894029378 7.4726780746136505 C 0.0 **** -0.24
1307 H 5.132164991492909 33.30731576942091 8.310130991950963 H 0.0 **** 0.06
1308 H 5.3611133826669 33.14175549566238 6.552688775338163 H 0.0 **** 0.06
1309 H 6.767663051511352 33.08680595914532 7.643397004262727 H 0.0 **** 0.06
1310 H 5.899503169158214 34.61986373396218 7.385829345046316 H 0.0 **** 0.06
1311 C 103.78597979639775 33.40100400643864 42.04684671061253 C 0.0 **** -0.24
1312 H 104.04397015673317 33.81801968837998 43.02024656528906 H 0.0 **** 0.06
1313 H 104.42286920916254 33.8437083717412 41.28075198146354 H 0.0 **** 0.06
1314 H 102.74174564574102 33.62181165703417 41.82275859594088 H 0.0 **** 0.06
1315 H 103.93368922765723 32.32173804948269 42.062791579693624 H 0.0 **** 0.06
1316 C 52.68824103597163 5.179564989502637 97.00881729023831 C 0.0 **** -0.24
1317 H 53.560828438654255 4.560501075289665 97.22090116764574 H 0.0 **** 0.06
1318 H 51.814486040311635 4.75559790643814 97.50471301193582 H 0.0 **** 0.06
1319 H 52.51730186639821 5.209234253791294 95.93248883105719 H 0.0 **** 0.06
1320 H 52.862340920462856 6.1903038477090035 97.37823791217767 H 0.0 **** 0.06
1321 C 33.29399127776412 56.90416140651244 11.017860208527651 C 0.0 **** -0.24
1322 H 34.08344605923111 57.55377860491176 11.395055118456668 H 0.0 **** 0.06
1323 H 33.28143679770807 56.942719391047646 9.927940422593963 H 0.0 **** 0.06
1324 H 32.330827776397996 57.24055519494171 11.404491563575448 H 0.0 **** 0.06
1325 H 33.47870146473258 55.88148617671862 11.344000993332486 H 0.0 **** 0.06
1326 C 94.9820543449583 22.719791895358938 66.69557310434325 C 0.0 **** -0.24
1327 H 94.54755318873234 22.932566831300733 65.71900977253301 H 0.0 **** 0.06
1328 H 96.0647392969847 22.840438773321495 66.64460167559113 H 0.0 **** 0.06
1329 H 94.74297092251291 21.695879793537515 66.98378751092716 H 0.0 **** 0.06
1330 H 94.5734450291072 23.410493805024615 67.43250297320265 H 0.0 **** 0.06
1331 C 16.75808123975091 19.634265935474673 17.46138204714893 C 0.0 **** -0.24
1332 H 17.18832611942346 20.566979232727647 17.824549464847365 H 0.0 **** 0.06
1333 H 15.748187338941161 19.522921104597458 17.856665555320404 H 0.0 **** 0.06
1334 H 17.372064396579116 18.79752332262896 17.791404402499808 H 0.0 **** 0.06
1335 H 16.72218407626868 19.65090784981072 16.37193409040276 H 0.0 **** 0.06
1336 C 98.35022381560006 7.748936526948 81.78737459256087 C 0.0 **** -0.24
1337 H 97.98209568811649 7.094037299058272 82.57600757028385 H 0.0 **** 0.06
1338 H 97.57435401738726 7.88014974980446 81.03299899263385 H 0.0 **** 0.06
1339 H 99.23255276128256 7.304063237804712 81.32728788597802 H 0.0 **** 0.06
1340 H 98.6115883717668 8.71788315329924 82.2118782466689 H 0.0 **** 0.06
1341 C 72.13942346892969 0.20828000112461353 100.63607387965692 C 0.0 **** -0.24
1342 H 73.05779005678818 0.444092345596923 100.09734314685588 H 0.0 **** 0.06
1343 H 72.21291090929219 -0.7938364463104994 101.05767863660964 H 0.0 **** 0.06
1344 H 71.2936995594518 0.2537252872759561 99.9484843963618 H 0.0 **** 0.06
1345 H 71.993708907952 0.9308929375138462 101.43946621376134 H 0.0 **** 0.06
1346 C 107.10521773042845 111.6987031472957 72.21321118077202 C 0.0 **** -0.24
1347 H 108.08497218479135 111.2211270379262 72.2047461502936 H 0.0 **** 0.06
1348 H 107.1947927429518 112.71894072208013 71.8387181134886 H 0.0 **** 0.06
1349 H 106.72021141859707 111.71853426143866 73.23257040821028 H 0.0 **** 0.06
1350 H 106.42079825393148 111.13689428971489 71.57753344805565 H 0.0 **** 0.06
1351 C 96.40322904111281 29.225519632291224 52.37143870613926 C 0.0 **** -0.24
1352 H 95.8942390523084 30.03414440693554 52.89559567802081 H 0.0 **** 0.06
1353 H 96.05659479538065 29.188774234971575 51.33737148482362 H 0.0 **** 0.06
1354 H 96.18224510466965 28.278184131182684 52.86260049694158 H 0.0 **** 0.06
1355 H 97.47922762674588 29.40147577527138 52.38786795653294 H 0.0 **** 0.06
1356 C 104.3549756311258 102.07058731006319 17.303799761135167 C 0.0 **** -0.24
1357 H 103.7193703863804 101.2790855877347 17.700974020832746 H 0.0 **** 0.06
1358 H 105.22518837308229 101.62770702771127 16.819382350948274 H 0.0 **** 0.06
1359 H 104.68229156125574 102.71637111038297 18.118382435260855 H 0.0 **** 0.06
1360 H 103.79267387239574 102.6574447342442 16.577811841488312 H 0.0 **** 0.06
1361 C 16.799885095414027 110.08219282724383 52.41190051115 C 0.0 **** -0.24
1362 H 17.30412546893683 109.43349233983355 53.12753845196164 H 0.0 **** 0.06
1363 H 17.394327705915316 110.9824924796929 52.25646915673724 H 0.0 **** 0.06
1364 H 15.817703674928794 110.35624002651932 52.7989951583009 H 0.0 **** 0.06
1365 H 16.682848399147417 109.55570576452101 51.46451611587147 H 0.0 **** 0.06
1366 C 73.76987698730656 42.530132714256354 78.27855776906006 C 0.0 **** -0.24
1367 H 73.55258266591369 41.79883118659369 79.0568209771732 H 0.0 **** 0.06
1368 H 73.70060067739055 42.05087496817691 77.30150185795162 H 0.0 **** 0.06
1369 H 74.7759723292466 42.923010464784994 78.41970852222127 H 0.0 **** 0.06
1370 H 73.04984037141037 43.34550420998275 78.33556563187241 H 0.0 **** 0.06
1371 C 17.623288581670778 82.15675516655037 41.0408823264231 C 0.0 **** -0.24
1372 H 17.90308038693371 82.7465717978194 40.16817203131686 H 0.0 **** 0.06
1373 H 18.464121563299358 82.11218215496518 41.7335803659015 H 0.0 **** 0.06
1374 H 17.356121188751928 81.14868111246608 40.7269514992108 H 0.0 **** 0.06
1375 H 16.76956054886105 82.62178598067248 41.53453323240208 H 0.0 **** 0.06
1376 C 45.150065084467755 60.24578419768893 68.61464655355664 C 0.0 **** -0.24
1377 H 45.55582042105356 60.16882698143609 67.60615433453466 H 0.0 **** 0.06
1378 H 45.29140637998964 61.26108915715641 68.98605186403569 H 0.0 **** 0.06
1379 H 45.66653173870237 59.54375440210651 69.26914922173322 H 0.0 **** 0.06
1380 H 44.08562882232313 60.010428407736576 68.5960852215693 H 0.0 **** 0.06
1381 C 31.59107821606105 81.99678928475868 11.155456711389714 C 0.0 **** -0.24
1382 H 31.367258988521797 82.69305365080984 10.347968501956842 H 0.0 **** 0.06
1383 H 32.21571762587341 81.1877339279574 10.775154858660574 H 0.0 **** 0.06
1384 H 30.66099792767318 81.58370436296988 11.546152126296324 H 0.0 **** 0.06
1385 H 32.11914263360529 82.52081600164843 11.952162658359764 H 0.0 **** 0.06
1386 C 43.29376142653689 11.161858535548248 4.764633904634607 C 0.0 **** -0.24
1387 H 43.4521442572709 10.305546292399711 4.109621255237599 H 0.0 **** 0.06
1388 H 42.984548260222596 12.022029758957693 4.170598476443033 H 0.0 **** 0.06
1389 H 44.22151630848083 11.395581634735066 5.28733057385098 H 0.0 **** 0.06
1390 H 42.517431063081574 10.924539493134443 5.491745454384613 H 0.0 **** 0.06
1391 C 74.11251103300924 35.47622254438102 67.37232823936733 C 0.0 **** -0.24
1392 H 73.61016548003619 35.60755415538222 66.41384696493515 H 0.0 **** 0.06
1393 H 75.19018182611995 35.566428501593975 67.2332563903152 H 0.0 **** 0.06
1394 H 73.87771978636141 34.49040698904807 67.77375712618459 H 0.0 **** 0.06
1395 H 73.77064787800043 36.242291010781514 68.06861920100357 H 0.0 **** 0.06
1396 C 73.81720622723537 75.06776791994153 95.04528025881095 C 0.0 **** -0.24
1397 H 73.85609384150024 74.0110519437093 94.78171155448871 H 0.0 **** 0.06
1398 H 72.8028573654482 75.44060387082061 94.90318124396867 H 0.0 **** 0.06
1399 H 74.50307667358678 75.6263428065009 94.40795989594156 H 0.0 **** 0.06
1400 H 74.10774959195524 75.19321617555914 96.08853703580809 H 0.0 **** 0.06
1401 C 17.71958877423873 9.04493962051778 41.24608841291365 C 0.0 **** -0.24
1402 H 18.461017533803897 9.764221327449121 40.89581322800953 H 0.0 **** 0.06
1403 H 16.71848762041614 9.434536906781446 41.056578713405145 H 0.0 **** 0.06
1404 H 17.850643112127045 8.880056018725611 42.31493988739808 H 0.0 **** 0.06
1405 H 17.850220193340306 8.102141863958437 40.714104146468344 H 0.0 **** 0.06
1406 C 57.92109883226078 48.4517161670332 23.89891805948389 C 0.0 **** -0.24
1407 H 58.891319808477334 48.13317455799342 23.51824514473438 H 0.0 **** 0.06
1408 H 58.04898198437715 48.90977902871033 24.879868477685093 H 0.0 **** 0.06
1409 H 57.26269185406079 47.58677896868964 23.98486766555341 H 0.0 **** 0.06
1410 H 57.48123201464131 49.17573415199998 23.212821457291952 H 0.0 **** 0.06
1411 C 91.78196675785208 33.36401462981232 69.92015879085866 C 0.0 **** -0.24
1412 H 92.784252843599 32.95956463529195 70.06388503875809 H 0.0 **** 0.06
1413 H 91.7648961128289 33.980700546360445 69.02141440213222 H 0.0 **** 0.06
1414 H 91.5081754103083 33.970762865952345 70.7839755148785 H 0.0 **** 0.06
1415 H 91.07156664271758 32.544178351462826 69.81315621539855 H 0.0 **** 0.06
1416 C 29.112621133276207 64.04098289623371 32.306384073324125 C 0.0 **** -0.24
1417 H 28.62500109962403 63.49554241617619 33.113626730824336 H 0.0 **** 0.06
1418 H 30.05936682103271 64.44712300446136 32.66228321039429 H 0.0 **** 0.06
1419 H 28.467673489731226 64.85674594407783 31.977843895878067 H 0.0 **** 0.06
1420 H 29.297568968511143 63.365586191723 31.47146674648235 H 0.0 **** 0.06
1421 C 62.07052575149723 108.137569447577 88.17489011067642 C 0.0 **** -0.24
1422 H 61.95140665377534 107.0601942548534 88.29085881267807 H 0.0 **** 0.06
1423 H 61.769249893920204 108.63733313194811 89.0959734694477 H 0.0 **** 0.06
1424 H 61.44575540900186 108.48418311875955 87.35220710641667 H 0.0 **** 0.06
1425 H 63.114103352025836 108.36609002196926 87.95993548005521 H 0.0 **** 0.06
1426 C 50.3044995259088 69.0931597322234 53.24816367528706 C 0.0 **** -0.24
1427 H 50.617902490272755 68.18083132394415 52.74083948111169 H 0.0 **** 0.06
1428 H 50.38823580735442 69.9381074233986 52.56273594404237 H 0.0 **** 0.06
1429 H 50.94149203376905 69.26417512001274 54.115352011490785 H 0.0 **** 0.06
1430 H 49.26862730938882 68.99090818259344 53.57348633125096 H 0.0 **** 0.06
1431 C 80.08792319585712 30.602103391371458 13.442551645550779 C 0.0 **** -0.24
1432 H 79.6461610526263 29.61251201614624 13.3234359929032 H 0.0 **** 0.06
1433 H 79.36765308056437 31.265285718777193 13.924436180529312 H 0.0 **** 0.06
1434 H 80.35196106152424 31.001824003955704 12.463506793425992 H 0.0 **** 0.06
1435 H 80.98329504423384 30.52773390893489 14.059829404326535 H 0.0 **** 0.06
1436 C 6.522927622262273 28.25782578618714 35.37915674670387 C 0.0 **** -0.24
1437 H 6.353151523638985 29.001357289145062 36.15795670513138 H 0.0 **** 0.06
1438 H 5.87510119761447 28.469683016952047 34.52850650674591 H 0.0 **** 0.06
1439 H 6.298883168678856 27.26545774366548 35.76973338299659 H 0.0 **** 0.06
1440 H 7.564570106140025 28.296887913963758 35.06124410475192 H 0.0 **** 0.06
1441 C 89.64515881619644 87.42312392070849 106.58454488776984 C 0.0 **** -0.24
1442 H 89.99083921422911 88.28850002752938 106.01753012033939 H 0.0 **** 0.06
1443 H 88.85586151387977 87.73109438979819 107.27101222384644 H 0.0 **** 0.06
1444 H 90.47718991677758 87.00523922347787 107.15125293858415 H 0.0 **** 0.06
1445 H 89.25762717076029 86.6704857554844 105.89788601455115 H 0.0 **** 0.06
1446 C 26.74203165010627 93.52300369919712 90.24090940947104 C 0.0 **** -0.24
1447 H 27.47030769214433 94.10963017180845 90.79953691653219 H 0.0 **** 0.06
1448 H 26.320623927850278 94.13406438737084 89.44104072776713 H 0.0 **** 0.06
1449 H 25.944015846108556 93.20098155231912 90.910489835161 H 0.0 **** 0.06
1450 H 27.231113533312197 92.64884710606978 89.81136251070629 H 0.0 **** 0.06
1451 C 84.28551015687745 3.4695457298706174 53.021830962598926 C 0.0 **** -0.24
1452 H 84.60966744421759 4.047303983731638 53.887097287244785 H 0.0 **** 0.06
1453 H 83.49343254306933 2.782245523423285 53.31965790972731 H 0.0 **** 0.06
1454 H 85.12865764237338 2.902300989521791 52.626881417754305 H 0.0 **** 0.06
1455 H 83.91070925405893 4.145429885184228 52.253748784100594 H 0.0 **** 0.06
1456 C 8.161707456148964 74.241256799918 44.11680642110164 C 0.0 **** -0.24
1457 H 8.749041298458618 74.88486624252346 44.77166077785995 H 0.0 **** 0.06
1458 H 8.004097008087829 74.7410077347536 43.16100919279188 H 0.0 **** 0.06
1459 H 7.19756990510243 74.03383112262986 44.58134681413068 H 0.0 **** 0.06
1460 H 8.69604844744569 73.30463562879453 43.953932405767176 H 0.0 **** 0.06
1461 C 21.807037921045293 29.227865491707206 25.43633142295939 C 0.0 **** -0.24
1462 H 21.852921993059567 29.764638191321822 24.488537069920067 H 0.0 **** 0.06
1463 H 20.873211735967004 29.468308853425413 25.944513511442103 H 0.0 **** 0.06
1464 H 22.64946094143042 29.523342239255243 26.062033714678854 H 0.0 **** 0.06
1465 H 21.853374334826157 28.155133939131872 25.248160345878645 H 0.0 **** 0.06
1466 C 79.07699762898986 91.10048352274134 55.91180312839168 C 0.0 **** -0.24
1467 H 79.3314414252134 91.31834888834098 56.94910464306733 H 0.0 **** 0.06
1468 H 79.46490655488415 90.1181273820541 55.641049536387754 H 0.0 **** 0.06
1469 H 79.51881694432043 91.85807778068803 55.2635045098928 H 0.0 **** 0.06
1470 H 77.99362006446714 91.10903399901079 55.7943497255101 H 0.0 **** 0.06
1471 C 89.08215000933993 18.599821506982238 13.449395337548196 C 0.0 **** -0.24
1472 H 89.24250218139704 18.33719983614455 14.495166555829428 H 0.0 **** 0.06
1473 H 88.02578415171115 18.49147067602763 13.205297790213933 H 0.0 **** 0.06
1474 H 89.67224564511037 17.939026349930828 12.813962161547124 H 0.0 **** 0.06
1475 H 89.38991414633509 19.632951802614116 13.284012469210381 H 0.0 **** 0.06
1476 C 93.4842098951014 75.92079780124524 65.97024696160545 C 0.0 **** -0.24
1477 H 93.8553866086153 75.42886427167772 65.0714513167116 H 0.0 **** 0.06
1478 H 94.29609818894579 76.02214201058064 66.6908544647743 H 0.0 **** 0.06
1479 H 92.68250016735183 75.32370679192329 66.40671611609346 H 0.0 **** 0.06
1480 H 93.10152241232356 76.90888025031367 65.71221823451395 H 0.0 **** 0.06
1481 C 88.91020498123552 93.79375423941804 56.087833409371456 C 0.0 **** -0.24
1482 H 88.89880108270728 92.70980706062 56.20351346072238 H 0.0 **** 0.06
1483 H 89.86956251874196 94.10438227217594 55.67538866663648 H 0.0 **** 0.06
1484 H 88.76202409913495 94.26501639953489 57.059927974727145 H 0.0 **** 0.06
1485 H 88.10931626170881 94.09494445524655 55.412562275639004 H 0.0 **** 0.06
1486 C 14.719675394192308 85.01490250877737 86.93119096995275 C 0.0 **** -0.24
1487 H 13.69370921464305 85.34696118611012 86.76555598623503 H 0.0 **** 0.06
1488 H 14.799620410503593 83.95354430032782 86.69762534958312 H 0.0 **** 0.06
1489 H 14.990195084848168 85.17952216269123 87.97404898567237 H 0.0 **** 0.06
1490 H 15.392137932825094 85.58103263128191 86.28671970962466 H 0.0 **** 0.06
1491 C 84.34327719829639 104.04648094876578 10.942648282897522 C 0.0 **** -0.24
1492 H 83.45231391898258 103.58080895262458 10.522621665760255 H 0.0 **** 0.06
1493 H 84.07965080555155 105.01523529737122 11.367754811508746 H 0.0 **** 0.06
1494 H 85.08668054954518 104.18288271976942 10.15729778803825 H 0.0 **** 0.06
1495 H 84.75330323176402 103.40654560469855 11.723589870531242 H 0.0 **** 0.06
1496 C 48.65934768461687 33.54620750964426 91.88289248883379 C 0.0 **** -0.24
1497 H 49.28635259462973 34.12447365862715 91.20374778333309 H 0.0 **** 0.06
1498 H 48.62639418376925 32.50767346529261 91.55069134097684 H 0.0 **** 0.06
1499 H 47.65113349114313 33.95908938568681 91.88650116837721 H 0.0 **** 0.06
1500 H 49.075413076683645 33.59270625634446 92.88936745373209 H 0.0 **** 0.06
1501 C 60.43468010006833 7.04119705430152 70.49953261531297 C 0.0 **** -0.24
1502 H 60.82155971583605 7.243596732380155 69.50071584894184 H 0.0 **** 0.06
1503 H 59.356997475380844 7.2074090357967435 70.51226795799082 H 0.0 **** 0.06
1504 H 60.91435871623455 7.707616334426518 71.21666452761082 H 0.0 **** 0.06
1505 H 60.64589605442624 6.005143603760089 70.76750939781687 H 0.0 **** 0.06
1506 C 8.784046700536805 111.63752655715464 94.727258614184 C 0.0 **** -0.24
1507 H 8.819319134811948 112.26342570050224 95.61863366192014 H 0.0 **** 0.06
1508 H 8.745051040833445 112.26976195396318 93.84061658378883 H 0.0 **** 0.06
1509 H 7.896531556502254 111.00507063537285 94.76196899296835 H 0.0 **** 0.06
1510 H 9.675353174240286 111.01081831592778 94.68920640775266 H 0.0 **** 0.06
1511 C 79.28943851276767 47.20226700825202 89.20153760843661 C 0.0 **** -0.24
1512 H 78.48536251041583 47.93120704293548 89.10183513776045 H 0.0 **** 0.06
1513 H 79.23598103159861 46.73531342699522 90.18539638109812 H 0.0 **** 0.06
1514 H 80.25059966228832 47.70371307263056 89.08751792194201 H 0.0 **** 0.06
1515 H 79.18442338675834 46.43828284992273 88.43052303074586 H 0.0 **** 0.06
1516 C 52.548616518843055 93.5389657437542 13.609309943077967 C 0.0 **** -0.24
1517 H 51.67627117912533 94.13858964256579 13.866823256932381 H 0.0 **** 0.06
1518 H 52.84402042813829 93.75064725604216 12.581151434535972 H 0.0 **** 0.06
1519 H 52.303636330152656 92.48112195656614 13.706534638431869 H 0.0 **** 0.06
1520 H 53.37014018086126 93.78489159799076 14.28204743153658 H 0.0 **** 0.06
1521 C 97.5357344500056 11.229916419293218 70.5109659906289 C 0.0 **** -0.24
1522 H 97.03992431500703 10.91426197557442 71.42818946175944 H 0.0 **** 0.06
1523 H 97.53315334475352 10.407218022224399 69.79518450420068 H 0.0 **** 0.06
1524 H 98.56376526957703 11.515030290539173 70.73290982154901 H 0.0 **** 0.06
1525 H 97.00543031611775 12.08316657698819 70.08633183390728 H 0.0 **** 0.06
1526 C 97.22175824718303 16.640840302650926 87.49524944390714 C 0.0 **** -0.24
1527 H 96.35725335619281 17.167662398444417 87.09126038045935 H 0.0 **** 0.06
1528 H 98.05788195093086 16.7278198729118 86.79990189502945 H 0.0 **** 0.06
1529 H 96.97349068225398 15.588360809512587 87.63547987625557 H 0.0 **** 0.06
1530 H 97.4995034679996 17.080238045098437 88.45382685944986 H 0.0 **** 0.06
1531 C 56.46116896397848 70.06163676193566 72.23690131265641 C 0.0 **** -0.24
1532 H 56.352303209758816 69.34456334701616 71.42434531319668 H 0.0 **** 0.06
1533 H 56.58816608030543 69.5270014028367 73.17807777669009 H 0.0 **** 0.06
1534 H 55.571270892521056 70.68762178131314 72.29208731600636 H 0.0 **** 0.06
1535 H 57.335008412485536 70.6876133678503 72.05389490862888 H 0.0 **** 0.06
1536 C 7.181468725235991 100.96330619042845 26.198657156249425 C 0.0 **** -0.24
1537 H 6.494172343980649 100.91004076062148 25.35429771201919 H 0.0 **** 0.06
1538 H 7.8886136858034455 100.13594860395025 26.143550072433783 H 0.0 **** 0.06
1539 H 6.618016403979038 100.89945474074565 27.12986277135522 H 0.0 **** 0.06
1540 H 7.723505953175074 101.90842462552882 26.165458061914165 H 0.0 **** 0.06
1541 C 47.359432065410545 112.1945352162971 105.91962561088354 C 0.0 **** -0.24
1542 H 47.40426683420117 112.8887576577702 105.08031908088611 H 0.0 **** 0.06
1543 H 46.74859042911356 111.33330197951577 105.64609629663067 H 0.0 **** 0.06
1544 H 46.91672026428725 112.69374363256517 106.78119079916178 H 0.0 **** 0.06
1545 H 48.366505433753105 111.86209469932345 106.16978531438764 H 0.0 **** 0.06
1546 C 106.26851065981572 111.73582105908545 99.92692537173332 C 0.0 **** -0.24
1547 H 106.98309270070993 112.1384129686953 100.64409312786472 H 0.0 **** 0.06
1548 H 106.27158879502463 112.34978791517243 99.02614147425862 H 0.0 **** 0.06
1549 H 105.2706998392031 111.7411030928987 100.36604958850188 H 0.0 **** 0.06
1550 H 106.54659568138538 110.71336529569176 99.67082122172346 H 0.0 **** 0.06
1551 C 6.292316354878551 28.746569159730704 27.52108249271879 C 0.0 **** -0.24
1552 H 6.368805088578611 29.649533469210965 28.12673611811605 H 0.0 **** 0.06
1553 H 6.020143684624458 29.015607460439746 26.500389674229808 H 0.0 **** 0.06
1554 H 5.527226932900916 28.092598196256517 27.94125463490819 H 0.0 **** 0.06
1555 H 7.251588341682805 28.228466912186995 27.51890615019302 H 0.0 **** 0.06
1556 C 77.24530534702308 100.88200569258646 103.44864214464644 C 0.0 **** -0.24
1557 H 76.89467889568891 101.08327194929845 104.46037991508155 H 0.0 **** 0.06
1558 H 77.52113012290772 101.82099015830227 102.96706001661406 H 0.0 **** 0.06
1559 H 76.45111222572257 100.40125520156181 102.87862322702145 H 0.0 **** 0.06
1560 H 78.11358954681259 100.22462562159961 103.48852140070105 H 0.0 **** 0.06
1561 C 62.83071899405187 52.1888313848782 92.89546485606346 C 0.0 **** -0.24
1562 H 62.15174755278489 52.858103458301855 93.42508277329301 H 0.0 **** 0.06
1563 H 63.811179411809285 52.65774164744914 92.81285178806664 H 0.0 **** 0.06
1564 H 62.4375981560381 51.98793978361198 91.89892737333153 H 0.0 **** 0.06
1565 H 62.920387863391205 51.252365139401434 93.44620877792707 H 0.0 **** 0.06
1566 C 91.54593248348965 68.76797049177333 40.76197050588638 C 0.0 **** -0.24
1567 H 91.65994731555361 69.51478954956872 41.54762265293161 H 0.0 **** 0.06
1568 H 90.56346415295411 68.30221292849876 40.84413685013942 H 0.0 **** 0.06
1569 H 92.31857956093984 68.00675475815751 40.87004219906959 H 0.0 **** 0.06
1570 H 91.6415878536894 69.24736440205447 39.78880053050206 H 0.0 **** 0.06
1571 C 68.65145452743448 101.3247552935278 84.83515276224736 C 0.0 **** -0.24
1572 H 68.59529093895208 100.70180321012617 85.72672083604462 H 0.0 **** 0.06
1573 H 69.0721293381404 100.74514703866532 84.01278032410102 H 0.0 **** 0.06
1574 H 69.2862798850968 102.18772144409218 85.03340138479908 H 0.0 **** 0.06
1575 H 67.65074466733535 101.66418668578774 84.5650461536519 H 0.0 **** 0.06
1576 C 26.824862169809137 41.68030120469871 103.35509113934722 C 0.0 **** -0.24
1577 H 26.9065404359649 42.756544187741895 103.50298644207646 H 0.0 **** 0.06
1578 H 26.074646160285596 41.27569134463755 104.03484493155952 H 0.0 **** 0.06
1579 H 27.788455986045307 41.21119435481404 103.55612387463168 H 0.0 **** 0.06
1580 H 26.530402069822145 41.47726118490033 102.32523415206856 H 0.0 **** 0.06
1581 C 15.437661653470599 58.250262493825915 67.98568966327298 C 0.0 **** -0.24
1582 H 15.971562371899836 58.37220596631667 68.92771203989525 H 0.0 **** 0.06
1583 H 16.140441216440138 57.96413665818699 67.203406938922 H 0.0 **** 0.06
1584 H 14.957063468589865 59.19171827019511 67.71643162238678 H 0.0 **** 0.06
1585 H 14.680361045242378 57.47506926228144 68.0956421184145 H 0.0 **** 0.06
1586 C 104.04015979851795 41.0319821303942 13.186716557774055 C 0.0 **** -0.24
1587 H 104.98092723059955 41.45638775819951 12.833804411863508 H 0.0 **** 0.06
1588 H 103.27317963693088 41.80655276441554 13.193286440613068 H 0.0 **** 0.06
1589 H 104.17369222505027 40.6410236917299 14.194807284490736 H 0.0 **** 0.06
1590 H 103.7349949650139 40.22446269099143 12.520954446408457 H 0.0 **** 0.06
1591 C 3.9460229432816902 65.57876626731522 49.440187878295376 C 0.0 **** -0.24
1592 H 4.704590578471766 64.79643075607291 49.45967290495608 H 0.0 **** 0.06
1593 H 3.9781319407487246 66.13877064708439 50.37470191677167 H 0.0 **** 0.06
1594 H 2.9615847143301437 65.12715988503652 49.32024038226615 H 0.0 **** 0.06
1595 H 4.14055459214498 66.25255571884068 48.60495935971301 H 0.0 **** 0.06
1596 C 56.40470480007957 106.76557623631689 85.51916678200976 C 0.0 **** -0.24
1597 H 57.463074403765035 106.93869870975443 85.32579215244593 H 0.0 **** 0.06
1598 H 55.89902139088525 107.72145829301081 85.65916044383877 H 0.0 **** 0.06
1599 H 56.29517570767504 106.16098540149699 86.42042189885805 H 0.0 **** 0.06
1600 H 55.96166205419297 106.23974797674566 84.67302069951339 H 0.0 **** 0.06
1601 C 4.413685822078634 91.80059527473728 19.540975476139636 C 0.0 **** -0.24
1602 H 4.736625880989777 90.77253415842006 19.3759528477444 H 0.0 **** 0.06
1603 H 3.3783061462952446 91.91181832726016 19.219630298364308 H 0.0 **** 0.06
1604 H 5.0477394897080785 92.47664028334134 18.968030942535762 H 0.0 **** 0.06
1605 H 4.493496640178947 92.0401677527914 20.60186270655666 H 0.0 **** 0.06
1606 C 92.93815199323626 75.04556114214842 34.14423892890372 C 0.0 **** -0.24
1607 H 92.6252764285349 75.99538973933261 34.5768448191246 H 0.0 **** 0.06
1608 H 92.0686495040444 74.39772718925937 34.02456816962032 H 0.0 **** 0.06
1609 H 93.6605360062621 74.56603776027836 34.80455327548739 H 0.0 **** 0.06
1610 H 93.3962071935889 75.22281377403107 33.171395517878295 H 0.0 **** 0.06
1611 C 14.7346649054779 70.07021164290302 27.088182972288664 C 0.0 **** -0.24
1612 H 14.00517630762829 69.8177478795273 27.857029356090777 H 0.0 **** 0.06
1613 H 15.639210564474169 70.45537285126443 27.559145177276328 H 0.0 **** 0.06
1614 H 14.316003201744124 70.82980542075578 26.426998326960636 H 0.0 **** 0.06
1615 H 14.976607111080028 69.17840462122678 26.50960400300783 H 0.0 **** 0.06
1616 C 33.380942582804806 39.90868418507236 60.44980232284513 C 0.0 **** -0.24
1617 H 33.2226565384822 40.01744637696072 61.52309852883883 H 0.0 **** 0.06
1618 H 32.58988682953964 39.28884783910016 60.02779511138425 H 0.0 **** 0.06
1619 H 34.34715723237622 39.43690399647704 60.27100049078058 H 0.0 **** 0.06
1620 H 33.363741159223366 40.89196259973238 59.979241927242754 H 0.0 **** 0.06
1621 C 106.5410755923544 94.0660906833952 68.89425221198303 C 0.0 **** -0.24
1622 H 106.55042965431807 94.20442053689484 67.81332403862214 H 0.0 **** 0.06
1623 H 106.15564561634136 94.96597856631217 69.37322810150997 H 0.0 **** 0.06
1624 H 107.55580773504565 93.87400310204956 69.24418003583412 H 0.0 **** 0.06
1625 H 105.90348591618041 93.21837864796842 69.14567638264595 H 0.0 **** 0.06
1626 C 36.378810168719696 63.913549071637355 58.429615612147465 C 0.0 **** -0.24
1627 H 36.054131979768506 64.89016544284425 58.78733459858834 H 0.0 **** 0.06
1628 H 35.58311860954253 63.46087301007193 57.83863704238528 H 0.0 **** 0.06
1629 H 36.607977887848826 63.273374859155204 59.281787278277044 H 0.0 **** 0.06
1630 H 37.26953102752576 64.03047710654457 57.81221575488136 H 0.0 **** 0.06
1631 C 67.77268735107643 48.93903969014542 32.83340342241336 C 0.0 **** -0.24
1632 H 66.74160989815951 48.872817636880995 33.18258301930702 H 0.0 **** 0.06
1633 H 67.96663397290709 48.137816571945166 32.12087583334234 H 0.0 **** 0.06
1634 H 68.44997284238718 48.84536109701753 33.68189445708257 H 0.0 **** 0.06
1635 H 67.9296066161676 49.90339239512116 32.34837487313795 H 0.0 **** 0.06
1636 C 17.215961606984422 1.1790311165453886 68.42055381942274 C 0.0 **** -0.24
1637 H 17.883945996919948 2.0247319587223274 68.57827581281623 H 0.0 **** 0.06
1638 H 16.746282512969742 0.9057790051658685 69.36559256824404 H 0.0 **** 0.06
1639 H 17.785757181529505 0.33259254661632554 68.03823445766827 H 0.0 **** 0.06
1640 H 16.446034633748155 1.4549550428385345 67.69872493543588 H 0.0 **** 0.06
1641 C 106.01784299720617 54.08922091883638 60.29173654301062 C 0.0 **** -0.24
1642 H 105.0354904248054 53.86100448339196 59.876552066201505 H 0.0 **** 0.06
1643 H 105.99086883380636 55.06825449532872 60.7711717278516 H 0.0 **** 0.06
1644 H 106.75756249174418 54.09613121770756 59.491376817518095 H 0.0 **** 0.06
1645 H 106.28578922477772 53.33112060255765 61.02816519606157 H 0.0 **** 0.06
1646 C 36.416560381005624 72.71641537592848 106.1096740379169 C 0.0 **** -0.24
1647 H 36.99232700282734 73.27146478045802 105.37035933090462 H 0.0 **** 0.06
1648 H 37.09708169466532 72.21678874010559 106.79975693455346 H 0.0 **** 0.06
1649 H 35.79847790851028 71.97248012315856 105.60624893727473 H 0.0 **** 0.06
1650 H 35.7775009322084 73.40517862032408 106.66343001259901 H 0.0 **** 0.06
1651 C 26.406121167793557 33.24878726544273 19.014548440382697 C 0.0 **** -0.24
1652 H 26.904653362057296 33.51579267684605 18.082053816644986 H 0.0 **** 0.06
1653 H 25.55272968640588 33.90870494177403 19.172079570632633 H 0.0 **** 0.06
1654 H 27.106248024467945 33.35618541391753 19.844060048702573 H 0.0 **** 0.06
1655 H 26.063370991919868 32.21609523614552 18.959905856373894 H 0.0 **** 0.06
1656 C 16.29901371962103 21.87755691202193 111.66557466258877 C 0.0 **** -0.24
1657 H 16.053305967656 20.978100851461107 112.23164884821307 H 0.0 **** 0.06
1658 H 17.282781792523934 21.761979668118528 111.2101367455285 H 0.0 **** 0.06
1659 H 16.307427152143987 22.73711311930134 112.3352250841503 H 0.0 **** 0.06
1660 H 15.55348843555467 22.03119542284145 110.88613667123337 H 0.0 **** 0.06
1661 C 94.47480823523813 24.660250400459518 72.52970624506796 C 0.0 **** -0.24
1662 H 95.51201167636165 24.590804336093754 72.20138830037496 H 0.0 **** 0.06
1663 H 93.86039942066355 23.982331186227952 71.93797599652038 H 0.0 **** 0.06
1664 H 94.12031873354107 25.682331557239365 72.39726502144131 H 0.0 **** 0.06
1665 H 94.40903267954582 24.38698475377265 73.58290179151808 H 0.0 **** 0.06
1666 C 96.17197690697424 61.47156227202782 111.56908786864251 C 0.0 **** -0.24
1667 H 96.67426554260942 60.53975430066803 111.30684277242634 H 0.0 **** 0.06
1668 H 95.45155452999586 61.72665329453701 110.7916114483977 H 0.0 **** 0.06
1669 H 96.91010748037513 62.2693050055824 111.6578979747305 H 0.0 **** 0.06
1670 H 95.65352009737694 61.348939775743354 112.51971798456314 H 0.0 **** 0.06
1671 C 30.686826411922716 95.97406659449652 104.19415008866258 C 0.0 **** -0.24
1672 H 29.654601424660065 96.29957525684364 104.32753727105748 H 0.0 **** 0.06
1673 H 30.936001465369934 95.98143246402117 103.13281557348003 H 0.0 **** 0.06
1674 H 30.803308753047354 94.9647741799981 104.58801051334598 H 0.0 **** 0.06
1675 H 31.352711124873622 96.65206152954232 104.72845321679156 H 0.0 **** 0.06
1676 C 44.02499414976282 93.76019625393349 7.449940142133897 C 0.0 **** -0.24
1677 H 44.045920758729835 93.7544315944165 6.359579969270584 H 0.0 **** 0.06
1678 H 44.2661072778603 92.7643910251058 7.8231128200251305 H 0.0 **** 0.06
1679 H 43.030520172798305 94.04563976344187 7.7923242509208706 H 0.0 **** 0.06
1680 H 44.75670100324572 94.47552615970764 7.823388275636802 H 0.0 **** 0.06
1681 C 33.563079214461524 0.8680534293773405 17.614809823410468 C 0.0 **** -0.24
1682 H 33.52086681111928 1.9503904821805236 17.490354843143848 H 0.0 **** 0.06
1683 H 33.67542355098084 0.6288302461570083 18.672862977903527 H 0.0 **** 0.06
1684 H 34.412837299262534 0.47096945327177764 17.059777493522564 H 0.0 **** 0.06
1685 H 32.641835180620106 0.42384794996875996 17.237928796016625 H 0.0 **** 0.06
1686 C 64.83076057771115 102.91907264543437 40.10912807858597 C 0.0 **** -0.24
1687 H 65.79911217298647 103.08736873180203 40.581266885127945 H 0.0 **** 0.06
1688 H 64.4485261288527 101.94138361434631 40.403249475419074 H 0.0 **** 0.06
1689 H 64.94501116616172 102.95431047496675 39.02522746196959 H 0.0 **** 0.06
1690 H 64.13282584783911 103.69294345967421 40.42676843545891 H 0.0 **** 0.06
1691 C 22.68661683956955 94.8624113133672 94.89353844414086 C 0.0 **** -0.24
1692 H 22.728969196401994 94.6945970190823 95.96947524592909 H 0.0 **** 0.06
1693 H 22.08601674711134 95.74822039140295 94.68831621966805 H 0.0 **** 0.06
1694 H 22.23646359663222 93.99636955303507 94.40775747707983 H 0.0 **** 0.06
1695 H 23.696304584182183 95.00988233183853 94.50871716748244 H 0.0 **** 0.06
1696 C 96.40746842078829 28.449059479502466 102.41075664143835 C 0.0 **** -0.24
1697 H 96.55919810073448 27.38041489631999 102.56621824610937 H 0.0 **** 0.06
1698 H 95.48082237356635 28.607473517395533 101.85962103894423 H 0.0 **** 0.06
1699 H 97.24395334110329 28.856161070309838 101.84263458750974 H 0.0 **** 0.06
1700 H 96.34556829839693 28.951212500914522 103.37677484456884 H 0.0 **** 0.06
1701 C 103.30831072835082 30.13440345437005 33.62347074621576 C 0.0 **** -0.24
1702 H 104.17525635727424 30.132896565789665 34.28300869776817 H 0.0 **** 0.06
1703 H 102.42563457667353 30.4444028596454 34.18362485001205 H 0.0 **** 0.06
1704 H 103.15332647406152 29.131423723321788 33.22461740882508 H 0.0 **** 0.06
1705 H 103.47942495193502 30.829111516918744 32.800961148637185 H 0.0 **** 0.06
1706 C 107.6089743159344 109.20809570751288 14.24356380587109 C 0.0 **** -0.24
1707 H 108.01544839619058 109.06978824935885 15.246033918404958 H 0.0 **** 0.06
1708 H 107.82533442506175 108.32737335252102 13.639393471918094 H 0.0 **** 0.06
1709 H 108.06481028083988 110.08471810188331 13.784673766208407 H 0.0 **** 0.06
1710 H 106.53036378689225 109.35016887638568 14.306364271796397 H 0.0 **** 0.06
1711 C 58.14202826237585 42.586813800494184 46.72173280435685 C 0.0 **** -0.24
1712 H 57.65068876809416 43.40984443966548 47.24147360963215 H 0.0 **** 0.06
1713 H 58.602278293723195 41.92030371653712 47.45172708846056 H 0.0 **** 0.06
1714 H 58.910028768455796 42.98368824979363 46.057008541462736 H 0.0 **** 0.06
1715 H 57.405705753786414 42.03428577387868 46.13869739175729 H 0.0 **** 0.06
1716 C 93.72735437692796 39.56724715797557 87.85841083089605 C 0.0 **** -0.24
1717 H 93.96339093719399 38.784665046891774 88.57962465660086 H 0.0 **** 0.06
1718 H 94.28913577403614 40.4693822848308 88.10341356999442 H 0.0 **** 0.06
1719 H 92.65961184273505 39.78295773949884 87.8940647587599 H 0.0 **** 0.06
1720 H 93.9972789537465 39.231983560680845 86.85654033822885 H 0.0 **** 0.06
1721 C 46.607094125016175 98.75825178876823 33.12936271398195 C 0.0 **** -0.24
1722 H 45.92697338734884 97.90706203536246 33.18031627445785 H 0.0 **** 0.06
1723 H 47.545933455039716 98.50225312785008 33.622168846962325 H 0.0 **** 0.06
1724 H 46.15528174891232 99.61462362892888 33.62969082905306 H 0.0 **** 0.06
1725 H 46.799956543411724 99.00622321992952 32.08619802076947 H 0.0 **** 0.06
1726 C 8.161201186512699 34.43660612258813 14.096332029450664 C 0.0 **** -0.24
1727 H 7.221732508539189 34.940654746739824 14.324995593593044 H 0.0 **** 0.06
1728 H 8.994325621680177 35.04826415731597 14.444505247853996 H 0.0 **** 0.06
1729 H 8.241786124144692 34.290521822861166 13.019453762975843 H 0.0 **** 0.06
1730 H 8.18554709523529 33.46986709930974 14.598013459146614 H 0.0 **** 0.06
1731 C 55.167316413862245 54.17154447096112 64.3792482261388 C 0.0 **** -0.24
1732 H 54.558453301073286 54.75216567842525 65.07196901408417 H 0.0 **** 0.06
1733 H 55.54050470409883 54.82500305193458 63.58953506553584 H 0.0 **** 0.06
1734 H 54.56077598134454 53.37964710953152 63.93944749825553 H 0.0 **** 0.06
1735 H 56.00751042795779 53.732045812148414 64.91519713838255 H 0.0 **** 0.06
1736 C 44.20720463750893 23.00153030886835 25.46864737911409 C 0.0 **** -0.24
1737 H 45.29212582216259 22.922418824602254 25.53182760211496 H 0.0 **** 0.06
1738 H 43.76251030629099 22.652055020054704 26.400827300660183 H 0.0 **** 0.06
1739 H 43.84690584220916 22.388129881070146 24.642445759657505 H 0.0 **** 0.06
1740 H 43.92749418060009 24.041363838775332 25.298927930969683 H 0.0 **** 0.06
1741 C 10.994886135717223 56.70888980792455 70.34830066581259 C 0.0 **** -0.24
1742 H 10.997610513585926 55.67396250158163 70.68851584152003 H 0.0 **** 0.06
1743 H 10.379147648868724 57.31018294183369 71.01816120820266 H 0.0 **** 0.06
1744 H 10.588869337864395 56.75786269713197 69.33824899940629 H 0.0 **** 0.06
1745 H 12.014849659277047 57.093638698014814 70.34862676808933 H 0.0 **** 0.06
1746 C 10.525020737199739 47.66885010941897 17.546605333451367 C 0.0 **** -0.24
1747 H 10.183654697828416 47.54065448355493 18.573018703821475 H 0.0 **** 0.06
1748 H 10.030719457391086 46.93828703574911 16.905456140154882 H 0.0 **** 0.06
1749 H 11.604286303069244 47.52125199433411 17.501905752622235 H 0.0 **** 0.06
1750 H 10.281494445742808 48.67541750696924 17.20464410170655 H 0.0 **** 0.06
1751 C 78.70655735763685 83.77945881948045 19.317688674868748 C 0.0 **** -0.24
1752 H 78.7371681564207 84.86776871921975 19.269793945210537 H 0.0 **** 0.06
1753 H 79.53264590139287 83.36687376126233 18.737860493697287 H 0.0 **** 0.06
1754 H 77.76108862564607 83.42447429657034 18.90588370310085 H 0.0 **** 0.06
1755 H 78.79368906587607 83.4588873400318 20.356080898855918 H 0.0 **** 0.06
1756 C 22.854948323129136 92.23013519640017 4.374321993320656 C 0.0 **** -0.24
1757 H 21.988520747743934 92.87638898648024 4.232150580232826 H 0.0 **** 0.06
1758 H 23.652762528809575 92.79366264202633 4.858898865811721 H 0.0 **** 0.06
1759 H 23.20118309431672 91.86822252254385 3.4060941781792593 H 0.0 **** 0.06
1760 H 22.575709488936283 91.38315533162353 5.000915293826319 H 0.0 **** 0.06
1761 C 71.00025079334739 22.422389864578946 61.63804575046771 C 0.0 **** -0.24
1762 H 71.77969245644442 21.761233975975102 62.014768311417356 H 0.0 **** 0.06
1763 H 70.02595045937974 22.061502110121893 61.96723150974191 H 0.0 **** 0.06
1764 H 71.0329926233749 22.438643092761424 60.54898737089928 H 0.0 **** 0.06
1765 H 71.16273783123128 23.43038543455927 62.021172815339526 H 0.0 **** 0.06
1766 C 4.6789972077488855 99.03730859281558 38.52265674695843 C 0.0 **** -0.24
1767 H 5.211050606317018 99.91794884357347 38.882616916813134 H 0.0 **** 0.06
1768 H 5.358537644643189 98.41438399270845 37.94064287056389 H 0.0 **** 0.06
1769 H 3.8440474534005222 99.34990221143522 37.895178815594164 H 0.0 **** 0.06
1770 H 4.301711668146348 98.46825492762429 39.37229839782279 H 0.0 **** 0.06
1771 C 44.91129393610021 109.8711160802352 7.91023443711444 C 0.0 **** -0.24
1772 H 44.13008749271787 109.10995374411539 7.909302498587024 H 0.0 **** 0.06
1773 H 44.56011479752638 110.7513491613256 7.371090332433425 H 0.0 **** 0.06
1774 H 45.8031190161146 109.47718848780266 7.422897321682726 H 0.0 **** 0.06
1775 H 45.14976737989227 110.14469099796986 8.937682016632465 H 0.0 **** 0.06
1776 C 65.04623975461547 41.43601351452281 63.15749893496985 C 0.0 **** -0.24
1777 H 64.04500110554082 41.3697331178912 63.5827405646682 H 0.0 **** 0.06
1778 H 65.39472035748793 40.437742949677784 62.89085761417044 H 0.0 **** 0.06
1779 H 65.72370537553644 41.87394430742302 63.890024906798146 H 0.0 **** 0.06
1780 H 65.02121481216108 42.062103305274604 62.26510061236837 H 0.0 **** 0.06
1781 C 20.367683082696885 92.24177672403292 60.75007394618322 C 0.0 **** -0.24
1782 H 21.125972009899158 92.48147060300033 61.49550411597923 H 0.0 **** 0.06
1783 H 20.025530024456202 93.16072379796753 60.271057126539745 H 0.0 **** 0.06
1784 H 19.52472127453035 91.74981058492347 61.2348389096901 H 0.0 **** 0.06
1785 H 20.79422090335504 91.57731777224589 59.99898064366923 H 0.0 **** 0.06
1786 C 83.99521257497625 53.489802926403 76.4727015754518 C 0.0 **** -0.24
1787 H 83.5793978821157 53.91405900959352 75.55775818084021 H 0.0 **** 0.06
1788 H 83.4800224723702 53.911850749380186 77.33512150694645 H 0.0 **** 0.06
1789 H 85.05750744546816 53.72694578296565 76.5315171094135 H 0.0 **** 0.06
1790 H 83.86383075598977 52.40776282298417 76.46324508154561 H 0.0 **** 0.06
1791 C 6.460105147131362 11.252858674247623 43.73307911152577 C 0.0 **** -0.24
1792 H 5.4872632324220145 10.805270626086482 43.93991242404549 H 0.0 **** 0.06
1793 H 7.130597366369898 10.492869412317162 43.331143881636365 H 0.0 **** 0.06
1794 H 6.876720598032453 11.655420314346326 44.6560125021729 H 0.0 **** 0.06
1795 H 6.3425725043915975 12.056194672540549 43.00595963854224 H 0.0 **** 0.06
1796 C 86.43912555229497 76.33513875685563 10.5834429137861 C 0.0 **** -0.24
1797 H 86.70601087224077 75.82228768291361 11.507190368726583 H 0.0 **** 0.06
1798 H 85.57326746833405 75.84817716082415 10.134511306576215 H 0.0 **** 0.06
1799 H 87.28001233919125 76.29392209063855 9.889956014755342 H 0.0 **** 0.06
1800 H 86.19854107736751 77.3750402065366 10.801133964496913 H 0.0 **** 0.06
1801 C 55.64275682821665 84.98943677935625 50.29881414594092 C 0.0 **** -0.24
1802 H 55.57777531522322 84.24946254511605 49.50148617572671 H 0.0 **** 0.06
1803 H 56.24057795648673 85.8363733554055 49.959619780450396 H 0.0 **** 0.06
1804 H 56.113301425240934 84.54041596777955 51.173117551524 H 0.0 **** 0.06
1805 H 54.64143628831397 85.3318671125657 50.560256379577424 H 0.0 **** 0.06
1806 C 42.19064132564245 71.91521247748491 108.90076148559174 C 0.0 **** -0.24
1807 H 41.542986301874784 71.09074986995276 108.60361382185238 H 0.0 **** 0.06
1808 H 42.73621021510153 72.27985405756974 108.02926759087654 H 0.0 **** 0.06
1809 H 42.89882671469933 71.56892304645001 109.65364094732976 H 0.0 **** 0.06
1810 H 41.58522368604693 72.7209180925417 109.31420585865675 H 0.0 **** 0.06
1811 C 46.32233523072497 109.08842421140311 92.63969704317662 C 0.0 **** -0.24
1812 H 46.588165449779126 109.72726600460786 91.79658795561693 H 0.0 **** 0.06
1813 H 45.25997165359372 108.84709549796507 92.59022442572714 H 0.0 **** 0.06
1814 H 46.53387148226498 109.61137744291766 93.57258650328055 H 0.0 **** 0.06
1815 H 46.90670755378822 108.16959907902687 92.59695686379226 H 0.0 **** 0.06
1816 C 101.10884019161705 18.785300430530516 91.78583898072165 C 0.0 **** -0.24
1817 H 101.99759304480261 19.413613551252364 91.73900622429059 H 0.0 **** 0.06
1818 H 101.31865632711725 17.904662758021207 92.39355265655118 H 0.0 **** 0.06
1819 H 100.82936348780146 18.474597292849943 90.77925529920847 H 0.0 **** 0.06
1820 H 100.28938067207497 19.348390597556083 92.23290605537264 H 0.0 **** 0.06
1821 C 72.87772016429645 57.81648377078239 72.25789162349366 C 0.0 **** -0.24
1822 H 72.56530490446673 58.85209926467237 72.12054646359513 H 0.0 **** 0.06
1823 H 73.89987550726264 57.79247368160997 72.63612353537295 H 0.0 **** 0.06
1824 H 72.83093179186011 57.29447615366895 71.30165559594951 H 0.0 **** 0.06
1825 H 72.21410599371066 57.32898891167271 72.97097387327781 H 0.0 **** 0.06
1826 C 28.487073290384103 5.557708967339124 50.10286568452992 C 0.0 **** -0.24
1827 H 29.576275502614692 5.49876915272813 50.0995298564323 H 0.0 **** 0.06
1828 H 28.17366514530002 6.4496274323254 50.64458805372337 H 0.0 **** 0.06
1829 H 28.078092589195506 4.672629295423661 50.590345078427134 H 0.0 **** 0.06
1830 H 28.1232705634434 5.607734033001208 49.076207755830495 H 0.0 **** 0.06
1831 C 62.64059870720928 85.56723001135583 88.76416735257976 C 0.0 **** -0.24
1832 H 61.77870187720899 85.5342154922684 88.0993890737814 H 0.0 **** 0.06
1833 H 63.52268529742685 85.87369180712719 88.19990417421533 H 0.0 **** 0.06
1834 H 62.8084727196057 84.57894221422848 89.19114613990601 H 0.0 **** 0.06
1835 H 62.455369496465096 86.28200395110807 89.5652495447103 H 0.0 **** 0.06
1836 C 44.67788085440475 54.400299521879575 92.92615445715643 C 0.0 **** -0.24
1837 H 44.95386815683271 53.42887306975945 92.51710801344461 H 0.0 **** 0.06
1838 H 44.5509569185132 54.31730227640727 94.00596287139913 H 0.0 **** 0.06
1839 H 43.742403951690235 54.7322591540518 92.47421393040236 H 0.0 **** 0.06
1840 H 45.46391094227558 55.123206872533196 92.70652275272971 H 0.0 **** 0.06
1841 C 21.574201960846892 20.60255457185579 14.894347443520942 C 0.0 **** -0.24
1842 H 22.218603393245928 19.815722942229314 14.501955824016704 H 0.0 **** 0.06
1843 H 22.10672357696268 21.15807162446343 15.665849149358905 H 0.0 **** 0.06
1844 H 20.674962897474927 20.157114538430022 15.321440817419358 H 0.0 **** 0.06
1845 H 21.294427235067815 21.279146549596817 14.085574357215265 H 0.0 **** 0.06
1846 C 63.0454616298237 4.3235901764892475 88.2842551349311 C 0.0 **** -0.24
1847 H 62.45398416146413 3.65036581082677 87.66299126097005 H 0.0 **** 0.06
1848 H 63.93783729087787 4.629073538707644 87.73813520921746 H 0.0 **** 0.06
1849 H 63.3373614258657 3.8095530677810814 89.20025173513807 H 0.0 **** 0.06
1850 H 62.45166271988034 5.202477914679946 88.53401611922706 H 0.0 **** 0.06
1851 C 39.53142882041442 107.1873864943139 109.15814445480075 C 0.0 **** -0.24
1852 H 40.551423740330335 107.41876653311175 108.84947943739367 H 0.0 **** 0.06
1853 H 39.348461101728276 106.12087887413932 109.03367516688232 H 0.0 **** 0.06
1854 H 38.829788561593034 107.75195211497814 108.5444148939285 H 0.0 **** 0.06
1855 H 39.398683150651095 107.45986216953494 110.20560998498722 H 0.0 **** 0.06
1856 C 84.61617676992233 108.39026339929251 43.087557021949635 C 0.0 **** -0.24
1857 H 84.24754963537501 107.87313716487054 42.20181842164499 H 0.0 **** 0.06
1858 H 85.70133591202813 108.47679853036448 43.03255069440186 H 0.0 **** 0.06
1859 H 84.34109501962149 107.825844600372 43.97921721927909 H 0.0 **** 0.06
1860 H 84.17357231251415 109.38524256842743 43.13745844760243 H 0.0 **** 0.06
1861 C 12.761217852307425 93.12025787713168 66.43953491682237 C 0.0 **** -0.24
1862 H 12.35474743212555 93.47540060566288 67.38685527810941 H 0.0 **** 0.06
1863 H 13.00539534388895 92.06165140223283 66.52363622804899 H 0.0 **** 0.06
1864 H 13.661867268165793 93.68349102739884 66.19729664594274 H 0.0 **** 0.06
1865 H 12.020375923605798 93.26157115534727 65.65197968824583 H 0.0 **** 0.06
1866 C 10.40687287764986 23.441939917652096 17.01221826629279 C 0.0 **** -0.24
1867 H 10.971542341177908 24.30850993535081 16.667261413761963 H 0.0 **** 0.06
1868 H 9.67489600073344 23.757411545404107 17.755026340590717 H 0.0 **** 0.06
1869 H 11.089461613245163 22.718537408269917 17.456889777636633 H 0.0 **** 0.06
1870 H 9.893531077578245 22.9845050575501 16.166262030948673 H 0.0 **** 0.06
1871 C 86.72930617754102 48.58261614189149 35.82226371734825 C 0.0 **** -0.24
1872 H 86.27577773735723 48.262025281828386 36.75996826807784 H 0.0 **** 0.06
1873 H 87.23682870686298 47.73784162743604 35.356604733403685 H 0.0 **** 0.06
1874 H 87.44905971449893 49.376828542147194 36.020162409123756 H 0.0 **** 0.06
1875 H 85.95336356166473 48.95481853799451 35.15260419376639 H 0.0 **** 0.06
1876 C 38.349101491771705 102.0801499065278 76.54793309250294 C 0.0 **** -0.24
1877 H 38.01084424608632 103.04557843155919 76.17210046110128 H 0.0 **** 0.06
1878 H 37.59315295032616 101.66486002755104 77.21562883292188 H 0.0 **** 0.06
1879 H 39.28379870888182 102.20947272436229 77.09247146848153 H 0.0 **** 0.06
1880 H 38.50746688254776 101.39978690755518 75.71059323344633 H 0.0 **** 0.06
1881 C 12.888052689897709 34.50588526246871 14.55860409599542 C 0.0 **** -0.24
1882 H 13.740040947083571 33.82623314930468 14.549363278891775 H 0.0 **** 0.06
1883 H 12.382061565363095 34.439685287729255 15.521707375941617 H 0.0 **** 0.06
1884 H 12.195542411625787 34.23126809790643 13.763541670279125 H 0.0 **** 0.06
1885 H 13.23648014840905 35.527062739044354 14.398890763525714 H 0.0 **** 0.06
1886 C 99.25201049582122 56.06010587708783 94.67336557621067 C 0.0 **** -0.24
1887 H 98.65314366652859 56.68529138766286 95.33629697342545 H 0.0 **** 0.06
1888 H 99.76043891139074 55.2935191655286 95.25843118764158 H 0.0 **** 0.06
1889 H 99.99004032637436 56.67767536103511 94.161446350532 H 0.0 **** 0.06
1890 H 98.6027105756913 55.585239532786936 93.93790928806519 H 0.0 **** 0.06
1891 C 57.995403136031875 87.55656458059497 2.528956430266277 C 0.0 **** -0.24
1892 H 58.0525733855358 86.67246484664162 1.8944742975556608 H 0.0 **** 0.06
1893 H 58.8866323952928 87.61130642192043 3.1555713293440277 H 0.0 **** 0.06
1894 H 57.10996301141655 87.49401479806389 3.160709261048737 H 0.0 **** 0.06
1895 H 57.93476760441265 88.44817253072523 1.904356539992122 H 0.0 **** 0.06
1896 C 54.646786998054495 1.1443185881132223 77.74864050210442 C 0.0 **** -0.24
1897 H 55.182644162274585 2.0601617806406267 77.99576936026315 H 0.0 **** 0.06
1898 H 54.2256120903719 1.2285571533936661 76.74662803997225 H 0.0 **** 0.06
1899 H 53.84255352036337 0.9895156003654506 78.4677962076737 H 0.0 **** 0.06
1900 H 55.3339593270785 0.2995895751039228 77.78417096757573 H 0.0 **** 0.06
1901 C 100.44613659397584 6.852589296231004 19.35114637793643 C 0.0 **** -0.24
1902 H 101.33329115901304 7.484667498579839 19.31650111148666 H 0.0 **** 0.06
1903 H 100.16444321172418 6.679031039527917 20.390089977745276 H 0.0 **** 0.06
1904 H 100.65981584451544 5.899351821510548 18.867800874847987 H 0.0 **** 0.06
1905 H 99.62648104758182 7.348623466481346 18.830228590317063 H 0.0 **** 0.06
1906 C 27.283748743100375 45.83676106770503 44.99773369958058 C 0.0 **** -0.24
1907 H 27.860035557691617 46.17756694849754 44.137306319540414 H 0.0 **** 0.06
1908 H 27.026289430767235 44.785328384454544 44.868287068463815 H 0.0 **** 0.06
1909 H 26.369999307005997 46.427156132721564 45.079636963399025 H 0.0 **** 0.06
1910 H 27.87693517304473 45.95741047307126 45.90435764947233 H 0.0 **** 0.06
1911 C 66.03881214366479 13.340120778640738 19.29090719980311 C 0.0 **** -0.24
1912 H 65.7135910185172 12.38493866484373 18.876884469251046 H 0.0 **** 0.06
1913 H 66.94139022727302 13.189763508512328 19.883276921404693 H 0.0 **** 0.06
1914 H 65.25150989235925 13.748203711646767 19.924286109288477 H 0.0 **** 0.06
1915 H 66.24857823719375 14.035282403569 18.47834344390048 H 0.0 **** 0.06
1916 C 94.34341728320703 55.586710356668675 8.515095923702603 C 0.0 **** -0.24
1917 H 94.94623316551329 56.36657373785173 8.050101847505658 H 0.0 **** 0.06
1918 H 93.86028386168857 54.99062004991104 7.739460080973373 H 0.0 **** 0.06
1919 H 93.58284617364743 56.04387614989699 9.149063184028378 H 0.0 **** 0.06
1920 H 94.98344177425707 54.94548765078115 9.121342981518382 H 0.0 **** 0.06
1921 C 62.78841161740612 28.876773878675557 44.25563275558055 C 0.0 **** -0.24
1922 H 62.24997539516465 29.42943844016245 45.025606594703795 H 0.0 **** 0.06
1923 H 63.39423698591184 28.099599729328006 44.722386864784006 H 0.0 **** 0.06
1924 H 63.433843019196054 29.55948576170941 43.70249515023434 H 0.0 **** 0.06
1925 H 62.07337654841613 28.418418064105907 43.57177294564573 H 0.0 **** 0.06
1926 C 18.32466410149399 81.27572949478346 15.353721900087294 C 0.0 **** -0.24
1927 H 18.237415510193124 82.13340419028546 16.022065592924207 H 0.0 **** 0.06
1928 H 19.316920173811642 81.2674573872491 14.903451083627331 H 0.0 **** 0.06
1929 H 17.5694499266214 81.34849291985984 14.570759285316214 H 0.0 **** 0.06
1930 H 18.174251124850173 80.35729945024104 15.9202424395516 H 0.0 **** 0.06
1931 C 96.00373237865418 20.989844595390252 104.6122434941297 C 0.0 **** -0.24
1932 H 97.09277457076459 20.966897750674775 104.57996492129118 H 0.0 **** 0.06
1933 H 95.61346277865587 21.129454593795742 103.60367265913368 H 0.0 **** 0.06
1934 H 95.67595844992792 21.81371380392642 105.24602749192704 H 0.0 **** 0.06
1935 H 95.63273371526822 20.049312233164017 105.01930890416673 H 0.0 **** 0.06
1936 C 30.894022529896517 107.6646288817704 98.27778616117499 C 0.0 **** -0.24
1937 H 30.800368261923154 106.74489340343456 97.70079838908066 H 0.0 **** 0.06
1938 H 30.58691154354051 108.51155373396017 97.66300684406224 H 0.0 **** 0.06
1939 H 31.93089489960653 107.7965412505493 98.58624066332536 H 0.0 **** 0.06
1940 H 30.256345563337334 107.60606875771884 99.15998409874246 H 0.0 **** 0.06
1941 C 35.940564065745065 64.83884501667652 26.085449438318435 C 0.0 **** -0.24
1942 H 36.18882659637663 65.56923945604939 25.315770261470234 H 0.0 **** 0.06
1943 H 36.76325168804698 64.13196490475465 26.19534939208006 H 0.0 **** 0.06
1944 H 35.03555941778066 64.3026065475822 25.798318224923833 H 0.0 **** 0.06
1945 H 35.77246140512216 65.35183669380083 27.032884648914063 H 0.0 **** 0.06
1946 C 53.37399457992831 63.62846340062188 63.92490604090626 C 0.0 **** -0.24
1947 H 53.456316656622135 63.2882639273634 64.95759177819278 H 0.0 **** 0.06
1948 H 54.2084681545569 64.29143591267524 63.6936080436657 H 0.0 **** 0.06
1949 H 52.43510070986531 64.16684327327297 63.794872147456566 H 0.0 **** 0.06
1950 H 53.395570786883724 62.7685514152561 63.25658340365904 H 0.0 **** 0.06
1951 C 32.622421573405404 51.70749317866711 38.214089291149435 C 0.0 **** -0.24
1952 H 32.85763585646049 50.880322428664414 37.54434069580191 H 0.0 **** 0.06
1953 H 33.5424661334867 52.22260050175697 38.49200456036226 H 0.0 **** 0.06
1954 H 32.135324599796434 51.323863946658406 39.109565945712404 H 0.0 **** 0.06
1955 H 31.95482884730609 52.405180919178946 37.70827888272288 H 0.0 **** 0.06
1956 C 42.70003048963943 82.57089023264493 44.85297880323948 C 0.0 **** -0.24
1957 H 43.75519802815185 82.29947438532008 44.81267588336462 H 0.0 **** 0.06
1958 H 42.336858345784634 82.76861138216981 43.844897119843395 H 0.0 **** 0.06
1959 H 42.57914905560372 83.46529224828225 45.46537507018763 H 0.0 **** 0.06
1960 H 42.130259976108874 81.75147123661952 45.291096888517245 H 0.0 **** 0.06
1961 C 10.609187108377071 86.86569683540583 26.03579512876948 C 0.0 **** -0.24
1962 H 10.226736724409292 87.71912300711088 26.59612707488273 H 0.0 **** 0.06
1963 H 11.673730006290242 87.0052347059702 25.84296854063021 H 0.0 **** 0.06
1964 H 10.075758068114169 86.78529710123098 25.088688098435938 H 0.0 **** 0.06
1965 H 10.460404070116596 85.95447973085805 26.61581015371766 H 0.0 **** 0.06
1966 C 30.842309718674983 24.336632716847532 72.38016208336433 C 0.0 **** -0.24
1967 H 31.26022609420596 23.330022444371195 72.4059318201181 H 0.0 **** 0.06
1968 H 30.686438739361563 24.63950120091647 71.34499674394579 H 0.0 **** 0.06
1969 H 31.533186482043675 25.028941760408827 72.86213191730903 H 0.0 **** 0.06
1970 H 29.889101869107833 24.34788804084525 72.90955943266133 H 0.0 **** 0.06
1971 C 86.91917548142064 91.28670792826222 75.94477538430246 C 0.0 **** -0.24
1972 H 86.31643571310167 91.90703240249388 76.60806619926814 H 0.0 **** 0.06
1973 H 86.41500107659678 91.18710562249868 74.98391384473842 H 0.0 **** 0.06
1974 H 87.05185864794882 90.30099796505803 76.39111657122251 H 0.0 **** 0.06
1975 H 87.89371138668042 91.75344388499698 75.79842390460868 H 0.0 **** 0.06
1976 C 70.44143677770012 36.595432741874845 19.1383174195264 C 0.0 **** -0.24
1977 H 70.29150366429676 37.57183390152275 19.59828392621495 H 0.0 **** 0.06
1978 H 70.55564524321272 35.840402779284176 19.916309442458864 H 0.0 **** 0.06
1979 H 71.34056104188912 36.619362725186676 18.52087639088367 H 0.0 **** 0.06
1980 H 69.58041577575773 36.35094083645791 18.516500795156045 H 0.0 **** 0.06
1981 C 28.223915570211005 86.33873072572746 32.95033984544003 C 0.0 **** -0.24
1982 H 27.190115431901518 86.31905845557102 33.29425644310484 H 0.0 **** 0.06
1983 H 28.336585305139266 85.66377159777193 32.100525024877044 H 0.0 **** 0.06
1984 H 28.88158227643538 86.01925852051656 33.75777610594204 H 0.0 **** 0.06
1985 H 28.486327373514257 87.35265735001732 32.64683648817751 H 0.0 **** 0.06
1986 C 103.887562675553 34.44330266684308 102.81363707256656 C 0.0 **** -0.24
1987 H 103.95735638394845 34.735949518257996 103.8610467434755 H 0.0 **** 0.06
1988 H 104.71451830665774 33.777329658609005 102.5664817640066 H 0.0 **** 0.06
1989 H 103.93754439217079 35.33303293537067 102.18474411402644 H 0.0 **** 0.06
1990 H 102.94160091396915 33.9295467935261 102.64164680221131 H 0.0 **** 0.06
1991 C 47.582962464438154 107.3248127647073 72.00373476555728 C 0.0 **** -0.24
1992 H 48.058084553228014 106.78808220937515 72.82434408270123 H 0.0 **** 0.06
1993 H 47.67390588397239 106.74092035620635 71.08672034163777 H 0.0 **** 0.06
1994 H 48.07142545927928 108.29004117537903 71.8700994086322 H 0.0 **** 0.06
1995 H 46.52839783828305 107.47905272233373 72.23295931398792 H 0.0 **** 0.06
1996 C 51.78128876054828 90.3967330300747 92.68670363271829 C 0.0 **** -0.24
1997 H 52.1190566861092 90.66671371316477 91.68634938283236 H 0.0 **** 0.06
1998 H 51.27837506717452 91.2503018298602 93.1419437311514 H 0.0 **** 0.06
1999 H 52.63968175643736 90.11300797068259 93.29601059380676 H 0.0 **** 0.06
2000 H 51.08835006754575 89.55856581674252 92.62211253826797 H 0.0 **** 0.06
2001 C 82.07936155623457 81.93904956189886 61.06824725772527 C 0.0 **** -0.24
2002 H 83.13005741882887 81.69839648894043 61.22751007072112 H 0.0 **** 0.06
2003 H 81.83703756491568 82.86804665138402 61.58508081351447 H 0.0 **** 0.06
2004 H 81.4581615664406 81.13265333890928 61.45926790720909 H 0.0 **** 0.06
2005 H 81.89126034813654 82.05745850798223 60.00122587212115 H 0.0 **** 0.06
2006 C 61.530549380198124 38.65048348999612 23.066348286026383 C 0.0 **** -0.24
2007 H 61.13707146200903 39.63199940486827 22.799383674266608 H 0.0 **** 0.06
2008 H 62.53552029188836 38.76086229296045 23.475320718216054 H 0.0 **** 0.06
2009 H 61.56721307168584 38.02066631959597 22.177816653917233 H 0.0 **** 0.06
2010 H 60.88289313186078 38.19049263084375 23.81224314716539 H 0.0 **** 0.06
2011 C 31.91402794132921 43.82925552787938 78.1379900072526 C 0.0 **** -0.24
2012 H 31.26756943558911 43.52973959106009 77.31356599756225 H 0.0 **** 0.06
2013 H 32.93771269644378 43.93248363980692 77.77744889220867 H 0.0 **** 0.06
2014 H 31.877754280968418 43.071420836053306 78.92105720234042 H 0.0 **** 0.06
2015 H 31.571425336672007 44.78291135079209 78.53964336494994 H 0.0 **** 0.06
2016 C 21.76615314497701 37.28309706396669 100.29475338738422 C 0.0 **** -0.24
2017 H 22.681163727050176 37.82263600770801 100.05270858530929 H 0.0 **** 0.06
2018 H 21.58196900470952 36.52066714375633 99.5375069019251 H 0.0 **** 0.06
2019 H 20.929244805510763 37.980679043554915 100.3190880518705 H 0.0 **** 0.06
2020 H 21.87196613688434 36.80833665503769 101.2706707025016 H 0.0 **** 0.06
2021 C 53.1081939677299 67.99944159866584 79.21030046999849 C 0.0 **** -0.24
2022 H 52.62963808450262 67.76719139063266 80.16248248122653 H 0.0 **** 0.06
2023 H 53.36124257489333 67.07311092551367 78.6959628429722 H 0.0 **** 0.06
2024 H 54.015949225853674 68.57509446800634 79.39147872977571 H 0.0 **** 0.06
2025 H 52.42404755903034 68.58362284679606 78.59407534501216 H 0.0 **** 0.06
2026 C 82.23804447801419 24.050721603111526 33.65174170809616 C 0.0 **** -0.24
2027 H 82.96479212249517 23.250184893257995 33.79052296499909 H 0.0 **** 0.06
2028 H 81.25573053520193 23.619756453072966 33.456207075731086 H 0.0 **** 0.06
2029 H 82.53836741457806 24.671070298595907 32.80699852304331 H 0.0 **** 0.06
2030 H 82.19484935724154 24.66133044774051 34.55375358343828 H 0.0 **** 0.06
2031 C 88.76119931000952 48.96503702109352 13.306393413191628 C 0.0 **** -0.24
2032 H 88.03337968640167 49.61167318485608 12.815701363830684 H 0.0 **** 0.06
2033 H 88.90170347527527 48.06100681442669 12.711867981348263 H 0.0 **** 0.06
2034 H 88.39727362412907 48.695461922056616 14.298008645261618 H 0.0 **** 0.06
2035 H 89.71081886117847 49.490686936866545 13.39784378203214 H 0.0 **** 0.06
2036 C 20.403856486953657 91.47235206733458 65.76354424825882 C 0.0 **** -0.24
2037 H 19.567683377148967 91.78910331837434 65.13935707826468 H 0.0 **** 0.06
2038 H 20.790843408381477 90.52126489958508 65.39594829036585 H 0.0 **** 0.06
2039 H 20.06363332995585 91.35283468147037 66.79240488765367 H 0.0 **** 0.06
2040 H 21.19139831054588 92.22462411838228 65.72635562264387 H 0.0 **** 0.06
2041 C 39.149555192692844 4.472031400060928 56.97225213961761 C 0.0 **** -0.24
2042 H 39.54192853811719 3.646931457476853 56.37794950360595 H 0.0 **** 0.06
2043 H 39.95886784003304 4.922157966204281 57.54807117670504 H 0.0 **** 0.06
2044 H 38.383600073210886 4.098491885421424 57.65187142685369 H 0.0 **** 0.06
2045 H 38.71432801793881 5.2208409936131375 56.31030508692402 H 0.0 **** 0.06
2046 C 110.50392754402105 70.77723809360515 92.46781169592862 C 0.0 **** -0.24
2047 H 110.33457372804345 71.78663359297695 92.84215562516746 H 0.0 **** 0.06
2048 H 110.11925746582443 70.69702078938877 91.45005011960407 H 0.0 **** 0.06
2049 H 109.98944062068644 70.06090272812571 93.10842019245143 H 0.0 **** 0.06
2050 H 111.5735864955617 70.56386872895266 92.46998471552155 H 0.0 **** 0.06
2051 C 56.24982336449466 21.132634559118458 108.99408988537861 C 0.0 **** -0.24
2052 H 55.257834721037426 21.095946641669073 108.54451577164392 H 0.0 **** 0.06
2053 H 56.264052105195645 21.882814195438897 109.784849934688 H 0.0 **** 0.06
2054 H 56.98441219493748 21.39291917735119 108.23226081167309 H 0.0 **** 0.06
2055 H 56.4941346204719 20.156698411767408 109.41454449963463 H 0.0 **** 0.06
2056 C 36.049347800599485 58.99856922475263 0.09161718801770746 C 0.0 **** -0.24
2057 H 35.53787346031867 59.236834556048564 1.023947597940193 H 0.0 **** 0.06
2058 H 37.11846125881614 58.90303751723317 0.278173961429232 H 0.0 **** 0.06
2059 H 35.87536660811179 59.7954498168244 -0.6322725304606536 H 0.0 **** 0.06
2060 H 35.66377118260901 58.05814259608255 -0.30419199597254476 H 0.0 **** 0.06
2061 C 30.731184649206625 9.136310390729903 0.514699399554317 C 0.0 **** -0.24
2062 H 31.228914935921352 9.720688684972771 1.28839504102217 H 0.0 **** 0.06
2063 H 29.671365902134085 9.392567194119977 0.49118048299112615 H 0.0 **** 0.06
2064 H 30.843150665474013 8.073480408214976 0.733305284585029 H 0.0 **** 0.06
2065 H 31.180764959417786 9.356552870390658 -0.45313743644996407 H 0.0 **** 0.06
2066 C 46.897522771367704 22.425467828114495 94.26896454854432 C 0.0 **** -0.24
2067 H 46.52659743685376 21.449519246213125 93.95508530652785 H 0.0 **** 0.06
2068 H 47.38398065165197 22.916788491461677 93.42733575372438 H 0.0 **** 0.06
2069 H 47.61376089425448 22.297870532620127 95.08024146434218 H 0.0 **** 0.06
2070 H 46.06283602076735 23.03659732818487 94.6137401364914 H 0.0 **** 0.06
2071 C 97.99429200535039 65.85604437413281 26.112334103854693 C 0.0 **** -0.24
2072 H 98.86566977729296 65.66974792860185 26.740193012275796 H 0.0 **** 0.06
2073 H 97.087688864906 65.74751307089093 26.708065687813047 H 0.0 **** 0.06
2074 H 97.97869882291107 65.13905571593125 25.290844866930257 H 0.0 **** 0.06
2075 H 98.04567424220852 66.86773161529231 25.70941698621573 H 0.0 **** 0.06
2076 C 50.796579145830464 33.371469365278585 0.22419368756260383 C 0.0 **** -0.24
2077 H 50.62301184632079 32.67524795052522 -0.5964978134733769 H 0.0 **** 0.06
2078 H 49.86093359602388 33.86670096122862 0.4842695878357688 H 0.0 **** 0.06
2079 H 51.53011740859409 34.11742682305129 -0.0817646105180927 H 0.0 **** 0.06
2080 H 51.17188163816483 32.8256734851885 1.0896833004725295 H 0.0 **** 0.06
2081 C 95.7731147867579 69.5341904406317 32.71911115855136 C 0.0 **** -0.24
2082 H 96.44663542419025 70.36438741963704 32.50442449238128 H 0.0 **** 0.06
2083 H 94.74369432088818 69.84621017131647 32.54494301617603 H 0.0 **** 0.06
2084 H 95.89063213939204 69.23196228856244 33.7599018302799 H 0.0 **** 0.06
2085 H 96.0146299983152 68.69440432619524 32.067556806426936 H 0.0 **** 0.06
2086 C 103.22476431399915 30.304489876352903 108.61060405489081 C 0.0 **** -0.24
2087 H 102.94633010695978 30.835434028150644 107.70064908213072 H 0.0 **** 0.06
2088 H 102.37444066007913 30.278291462987198 109.29179470136779 H 0.0 **** 0.06
2089 H 104.05872163047988 30.81822835179743 109.0903263127492 H 0.0 **** 0.06
2090 H 103.52199231186015 29.285859191780162 108.35993998851308 H 0.0 **** 0.06
2091 C 112.43425937279372 21.11436106396589 66.60416302120771 C 0.0 **** -0.24
2092 H 113.32852236272811 21.213825002242036 67.21945809215657 H 0.0 **** 0.06
2093 H 111.64345425687448 20.642265917930434 67.18770382448233 H 0.0 **** 0.06
2094 H 112.66052896007007 20.49903787117621 65.73275273155852 H 0.0 **** 0.06
2095 H 112.10678674166837 22.10144738987535 66.27714058385854 H 0.0 **** 0.06
2096 C 8.351720712437952 47.318189086102336 22.218699850591236 C 0.0 **** -0.24
2097 H 9.321993667682804 47.622840424631306 21.82663565219042 H 0.0 **** 0.06
2098 H 8.383978314334698 47.31851683106811 23.308388682240093 H 0.0 **** 0.06
2099 H 8.11408929337334 46.31659081544342 21.86195689512698 H 0.0 **** 0.06
2100 H 7.587278494181319 48.016881760273776 21.877116631985587 H 0.0 **** 0.06
2101 C 37.591541371907425 89.30468899562794 98.57487848859441 C 0.0 **** -0.24
2102 H 37.40007262454773 88.83988660650084 99.54173101803141 H 0.0 **** 0.06
2103 H 36.66717484983579 89.33649409909236 97.99792322899734 H 0.0 **** 0.06
2104 H 38.338551935151486 88.72256124454532 98.03370015921544 H 0.0 **** 0.06
2105 H 37.96120148405237 90.31882087895832 98.72672155936823 H 0.0 **** 0.06
2106 C 43.31195506756666 69.12375662993958 103.98166518001631 C 0.0 **** -0.24
2107 H 44.23710499504938 69.30797227787349 104.5264757107596 H 0.0 **** 0.06
2108 H 43.52059027637455 68.50667115231789 103.10754375242288 H 0.0 **** 0.06
2109 H 42.88403195848264 70.07390421795452 103.66072155750103 H 0.0 **** 0.06
2110 H 42.60415668287254 68.60815085923258 104.63035269983112 H 0.0 **** 0.06
2111 C 45.95424394654043 78.34197765541612 4.2538393171245 C 0.0 **** -0.24
2112 H 46.08027583624738 79.4201719152575 4.352922596765383 H 0.0 **** 0.06
2113 H 45.68605885154909 78.101747895156 3.224521647498319 H 0.0 **** 0.06
2114 H 45.16364740668621 78.00559780254102 4.924121391859192 H 0.0 **** 0.06
2115 H 46.887579587938035 77.84268394467631 4.51223960410141 H 0.0 **** 0.06
2116 C 20.817637096836982 87.30541940954325 6.355421621561419 C 0.0 **** -0.24
2117 H 20.74319685857463 88.39045048432808 6.281309408788971 H 0.0 **** 0.06
2118 H 20.378146885517772 86.97553867917716 7.297362443102571 H 0.0 **** 0.06
2119 H 21.865749140877448 87.01007895033877 6.320557853153417 H 0.0 **** 0.06
2120 H 20.282468095677224 86.84692657836547 5.524756966076083 H 0.0 **** 0.06
2121 C 84.5445742343878 99.18561511472072 46.90467235709994 C 0.0 **** -0.24
2122 H 85.35395390888459 99.67389141622616 46.360730946517066 H 0.0 **** 0.06
2123 H 84.42062683993623 99.66349502983857 47.87648726895122 H 0.0 **** 0.06
2124 H 84.78566343621333 98.13205949382723 47.04471848610436 H 0.0 **** 0.06
2125 H 83.61994141708487 99.2745029950718 46.33495887744107 H 0.0 **** 0.06
2126 C 96.6003314453285 83.42800316534655 15.070211316991902 C 0.0 **** -0.24
2127 H 95.78961714699994 82.74216059912041 15.31622695446734 H 0.0 **** 0.06
2128 H 96.63401623023188 83.57868206914279 13.990797289697156 H 0.0 **** 0.06
2129 H 97.54774418927377 83.00814464674784 15.407985352085163 H 0.0 **** 0.06
2130 H 96.42971795232623 84.38464923670685 15.565278778953669 H 0.0 **** 0.06
2131 C 81.0101449452431 25.54950248958473 37.904270775954615 C 0.0 **** -0.24
2132 H 81.1626842838553 26.407091769352107 37.24871544759381 H 0.0 **** 0.06
2133 H 81.08758412979117 24.63038560949829 37.32344745978314 H 0.0 **** 0.06
2134 H 80.02125197638628 25.610935941548068 38.358575756499064 H 0.0 **** 0.06
2135 H 81.7701227542008 25.550481029905093 38.6866397751341 H 0.0 **** 0.06
2136 C 37.44605481134633 105.76477161709485 68.30683627544875 C 0.0 **** -0.24
2137 H 37.70042880174239 106.45354974712089 67.50064088639883 H 0.0 **** 0.06
2138 H 38.32848386024375 105.18701039739153 68.58348657576255 H 0.0 **** 0.06
2139 H 36.65784713180469 105.09008804630585 67.97308920211196 H 0.0 **** 0.06
2140 H 37.09717334602409 106.33110316899584 69.1710322909563 H 0.0 **** 0.06
2141 C 91.69929205598547 85.24308014054026 41.17739136845594 C 0.0 **** -0.24
2142 H 91.84721030518816 85.48185516184827 40.12365841588206 H 0.0 **** 0.06
2143 H 92.60342674731683 84.7812665515645 41.574498503857114 H 0.0 **** 0.06
2144 H 90.86325814831926 84.5507829032241 41.278984948411534 H 0.0 **** 0.06
2145 H 91.48400642442402 86.15721094586581 41.72997196293079 H 0.0 **** 0.06
2146 C 48.158337780470845 45.997527554731136 12.790460142717706 C 0.0 **** -0.24
2147 H 47.38214577467954 46.73900641304367 12.60002777483102 H 0.0 **** 0.06
2148 H 47.73396514574904 45.16114465917595 13.345360022744302 H 0.0 **** 0.06
2149 H 48.958744316515265 46.45214381944821 13.373694044150483 H 0.0 **** 0.06
2150 H 48.55886787939005 45.639380558113466 11.842116979454858 H 0.0 **** 0.06
2151 C 19.81353042433409 42.817017085596376 94.64150865835126 C 0.0 **** -0.24
2152 H 20.281738090838587 43.74691970680374 94.31830422987727 H 0.0 **** 0.06
2153 H 20.56778589501181 42.1654042089738 95.08346767777587 H 0.0 **** 0.06
2154 H 19.36206080120877 42.32084875281646 93.78242277737391 H 0.0 **** 0.06
2155 H 19.043204744617697 43.037281047221825 95.38047450168173 H 0.0 **** 0.06
2156 C 85.05687897606407 102.33707489772289 78.541421446295 C 0.0 **** -0.24
2157 H 85.06743418059975 103.42573723373363 78.49692146080471 H 0.0 **** 0.06
2158 H 85.60656730722204 101.93325305366093 77.69101444688886 H 0.0 **** 0.06
2159 H 84.02707615944936 101.98309964759474 78.51005274102647 H 0.0 **** 0.06
2160 H 85.5264382569851 102.00620965590247 79.4676971364598 H 0.0 **** 0.06
2161 C 16.371086585315282 70.95161641181164 102.0489943786493 C 0.0 **** -0.24
2162 H 17.17710626484734 71.67144793400703 102.19100578423712 H 0.0 **** 0.06
2163 H 15.76389263430687 70.90379373401501 102.95351411043242 H 0.0 **** 0.06
2164 H 16.79440584510732 69.96922846880341 101.84315696397238 H 0.0 **** 0.06
2165 H 15.748930399150879 71.26337442848427 101.21032520526984 H 0.0 **** 0.06
2166 C 1.1965645896290473 93.09370205577565 36.85138587469277 C 0.0 **** -0.24
2167 H 1.874614564390713 93.57106287303452 36.144604282955555 H 0.0 **** 0.06
2168 H 0.4664824354343384 92.49463366981573 36.3072227540309 H 0.0 **** 0.06
2169 H 0.6789285531792775 93.85846953581648 37.4315359397599 H 0.0 **** 0.06
2170 H 1.7654475698642127 92.45134029671058 37.52439328697389 H 0.0 **** 0.06
2171 C 47.108350960682515 87.80341448982418 45.75457020217863 C 0.0 **** -0.24
2172 H 46.53415674342091 87.11398562916659 46.37323749342079 H 0.0 **** 0.06
2173 H 47.74448074011448 88.41922727904497 46.39164397771219 H 0.0 **** 0.06
2174 H 46.42558459250438 88.44387534885192 45.19532658658483 H 0.0 **** 0.06
2175 H 47.72859262392748 87.23754084610297 45.05891530890955 H 0.0 **** 0.06
2176 C 28.677453673436787 36.673014333696926 0.4991643987513612 C 0.0 **** -0.24
2177 H 27.720821251875293 36.56461042027314 1.010684111591047 H 0.0 **** 0.06
2178 H 28.640047447553002 36.15023321928204 -0.45635695041039526 H 0.0 **** 0.06
2179 H 29.46836637654758 36.2471714479878 1.1164295857200273 H 0.0 **** 0.06
2180 H 28.879478811529225 37.730700864898346 0.3279876611646273 H 0.0 **** 0.06
2181 C 14.815938688540058 1.974374978850756 81.5579950263593 C 0.0 **** -0.24
2182 H 15.245559087345612 2.8268509667284327 82.08488442465878 H 0.0 **** 0.06
2183 H 14.1879869288193 1.403233230737067 82.242041881651 H 0.0 **** 0.06
2184 H 15.617107384627644 1.33856261841298 81.18167105377734 H 0.0 **** 0.06
2185 H 14.212087336337675 2.3302040291476906 80.72299943243965 H 0.0 **** 0.06
2186 C 32.506884894812 9.507102980217681 14.5565865860018 C 0.0 **** -0.24
2187 H 32.81409609137907 10.071776497813147 15.437429106862993 H 0.0 **** 0.06
2188 H 31.459861214510767 9.220404888911318 14.655455257628702 H 0.0 **** 0.06
2189 H 33.12271266649563 8.611066676107313 14.4672747702907 H 0.0 **** 0.06
2190 H 32.632800382091574 10.12453685642538 13.667124897664252 H 0.0 **** 0.06
2191 C 23.997832045643698 44.53344293030352 64.38620349464395 C 0.0 **** -0.24
2192 H 24.67749288001051 44.19006077542241 63.605955286711605 H 0.0 **** 0.06
2193 H 24.44503644912186 45.37874405878085 64.91079352998662 H 0.0 **** 0.06
2194 H 23.816703065985397 43.7230961338268 65.09205810365523 H 0.0 **** 0.06
2195 H 23.0541854665389 44.84204756574945 63.936783113806655 H 0.0 **** 0.06
2196 C 42.92534984327525 25.32862258166187 15.658156172200563 C 0.0 **** -0.24
2197 H 43.42050463136656 26.2633736099513 15.395153052486307 H 0.0 **** 0.06
2198 H 43.67601184783311 24.55373637429239 15.820681364383091 H 0.0 **** 0.06
2199 H 42.26310354655038 25.027209853951625 14.846485914711323 H 0.0 **** 0.06
2200 H 42.34437460737673 25.469185858250533 16.569166095705555 H 0.0 **** 0.06
2201 C 9.145088720985058 59.13739199062624 22.369342643459078 C 0.0 **** -0.24
2202 H 8.735767692033335 59.167676389173266 21.360049085939664 H 0.0 **** 0.06
2203 H 9.483449355342628 60.13430346062489 22.65322648877435 H 0.0 **** 0.06
2204 H 9.987177497686986 58.44602392026039 22.399691757164675 H 0.0 **** 0.06
2205 H 8.375738268646018 58.80318820345451 23.06485256848123 H 0.0 **** 0.06
2206 C 106.84822110536207 85.01137416551467 43.73193601302552 C 0.0 **** -0.24
2207 H 105.89754440555492 84.5232303146627 43.518065102169885 H 0.0 **** 0.06
2208 H 106.81533516792095 86.0422282043699 43.37729826094284 H 0.0 **** 0.06
2209 H 107.65230353204159 84.47809000715517 43.2246926248514 H 0.0 **** 0.06
2210 H 107.02834977201084 85.00199758838022 44.8064322088083 H 0.0 **** 0.06
2211 C 65.49380477648504 58.55662431483023 56.38350658882118 C 0.0 **** -0.24
2212 H 66.49927536053207 58.341577118473054 56.74395067998685 H 0.0 **** 0.06
2213 H 65.52589285264509 59.41379098791708 55.70915862512007 H 0.0 **** 0.06
2214 H 64.84510429532963 58.78473716429045 57.230300368759515 H 0.0 **** 0.06
2215 H 65.10475689833788 57.68859713129285 55.85093549759554 H 0.0 **** 0.06
2216 C 99.34589842622745 73.92181727160315 5.681991887512131 C 0.0 **** -0.24
2217 H 99.48184895368945 73.42311003025392 4.722738589887367 H 0.0 **** 0.06
2218 H 100.32118850921523 74.1395365225402 6.118894679255455 H 0.0 **** 0.06
2219 H 98.78284342232547 73.27271628881897 6.352107047444637 H 0.0 **** 0.06
2220 H 98.79878408063445 74.85237094844922 5.532947928705779 H 0.0 **** 0.06
2221 C 44.22340457863054 103.1695795049528 16.4009765493129 C 0.0 **** -0.24
2222 H 44.251617123313615 102.10672119697131 16.162702316200438 H 0.0 **** 0.06
2223 H 44.01039826392663 103.29812645728617 17.462479452583864 H 0.0 **** 0.06
2224 H 43.444446872286484 103.65421928251058 15.812464390154503 H 0.0 **** 0.06
2225 H 45.18818810601252 103.61962422568294 16.167152085797852 H 0.0 **** 0.06
2226 C 1.2887348553787366 84.55523994505393 29.747347382284772 C 0.0 **** -0.24
2227 H 2.2930306998379315 84.82088014178112 30.076465139078806 H 0.0 **** 0.06
2228 H 1.1632843110463895 84.83642058755947 28.701254148324153 H 0.0 **** 0.06
2229 H 0.5549277320924046 85.08257929489992 30.356410328483292 H 0.0 **** 0.06
2230 H 1.1447531168178688 83.48034970132903 29.854667400111907 H 0.0 **** 0.06
2231 C 100.34322724510741 103.13169119607377 24.737869804218832 C 0.0 **** -0.24
2232 H 100.16170586961326 103.95115121572928 24.041928933453704 H 0.0 **** 0.06
2233 H 99.4196908145282 102.57259412551147 24.888509514767236 H 0.0 **** 0.06
2234 H 100.68444219909995 103.53427484101113 25.691551170515908 H 0.0 **** 0.06
2235 H 101.10618625997819 102.47064163796782 24.328701962368342 H 0.0 **** 0.06
2236 C 54.975640627717304 79.23765353548637 68.21071366461314 C 0.0 **** -0.24
2237 H 53.900251318544605 79.06945672018293 68.26843760865182 H 0.0 **** 0.06
2238 H 55.48678275074769 78.28264847039404 68.08865855060816 H 0.0 **** 0.06
2239 H 55.31740557741026 79.7182814926316 69.12769943758423 H 0.0 **** 0.06
2240 H 55.19711600822093 79.88094785599966 67.3587427152749 H 0.0 **** 0.06
2241 C 3.3365980555380137 84.62700799822346 51.31308786639021 C 0.0 **** -0.24
2242 H 3.6277552422441914 85.19931217622974 52.19350468386891 H 0.0 **** 0.06
2243 H 2.66078476246523 85.22261946283615 50.69966081535904 H 0.0 **** 0.06
2244 H 2.8325786440872456 83.71153315658566 51.625778990631204 H 0.0 **** 0.06
2245 H 4.2241370548636095 84.3725350201382 50.73416784512239 H 0.0 **** 0.06
2246 C 103.13542674080247 16.68095612662904 95.35212415583169 C 0.0 **** -0.24
2247 H 103.2388238521369 16.189860326219872 96.31995129307336 H 0.0 **** 0.06
2248 H 102.8429444531688 17.720734027128827 95.50283079852198 H 0.0 **** 0.06
2249 H 102.3737165878928 16.17020252628953 94.7645659119537 H 0.0 **** 0.06
2250 H 104.08847246548504 16.643826381778382 94.82296472036259 H 0.0 **** 0.06
2251 C 10.944994161238185 90.95013435051288 41.319162446839584 C 0.0 **** -0.24
2252 H 10.001100266443416 90.65833617074094 41.77830453679388 H 0.0 **** 0.06
2253 H 11.739530422786686 90.29353822732526 41.67433997372498 H 0.0 **** 0.06
2254 H 11.17678198453649 91.98041200998642 41.587473250219915 H 0.0 **** 0.06
2255 H 10.862624189976373 90.86610567263602 40.23535121745206 H 0.0 **** 0.06
2256 C 45.8940736868835 10.208909544914022 24.231297106437097 C 0.0 **** -0.24
2257 H 45.889498481899665 11.190325175188846 24.707191955077235 H 0.0 **** 0.06
2258 H 46.78290257705058 10.112510640001886 23.608015607370078 H 0.0 **** 0.06
2259 H 45.0028171857216 10.100967798949469 23.613628275758572 H 0.0 **** 0.06
2260 H 45.901286688387074 9.434442996242865 24.99781970093329 H 0.0 **** 0.06
2261 C 41.08911987781801 90.81478034383747 4.69122291209456 C 0.0 **** -0.24
2262 H 41.422527863423454 91.76997591128818 5.096040025093146 H 0.0 **** 0.06
2263 H 40.094014705203534 90.92956853148277 4.261780550725234 H 0.0 **** 0.06
2264 H 41.05738112943223 90.07332387103497 5.489671001084133 H 0.0 **** 0.06
2265 H 41.78330943111342 90.48582015136972 3.9178947487077522 H 0.0 **** 0.06
2266 C 106.01195967290062 18.293266555755526 77.84289848128307 C 0.0 **** -0.24
2267 H 106.50002644988524 17.908386875601042 78.73792239347526 H 0.0 **** 0.06
2268 H 105.71228175416496 19.327850701858335 78.00943126520465 H 0.0 **** 0.06
2269 H 105.13095849542597 17.690628854339202 77.62279373892375 H 0.0 **** 0.06
2270 H 106.70359184997116 18.246043191758893 77.00156840733743 H 0.0 **** 0.06
2271 C 55.706691644863895 56.17010933932926 75.93779777650761 C 0.0 **** -0.24
2272 H 54.65592072173314 56.087561254196345 76.21628600317601 H 0.0 **** 0.06
2273 H 56.31214939976621 56.28218503155853 76.83844502204786 H 0.0 **** 0.06
2274 H 55.845107244811004 57.039784737646556 75.29598847938922 H 0.0 **** 0.06
2275 H 56.01254383842905 55.27100329634854 75.40328199293833 H 0.0 **** 0.06
2276 C 22.24273599013081 37.4984380992031 81.52090010132235 C 0.0 **** -0.24
2277 H 22.34302333688703 37.61331559456687 80.44153361616901 H 0.0 **** 0.06
2278 H 21.195864374538086 37.614544091478706 81.80298636341308 H 0.0 **** 0.06
2279 H 22.84163022005506 38.258021774504726 82.02413143537757 H 0.0 **** 0.06
2280 H 22.5910208314778 36.508664341865426 81.81507850610069 H 0.0 **** 0.06
2281 C 33.32098581653252 102.96498240179292 54.07529441924812 C 0.0 **** -0.24
2282 H 33.365291054132534 103.44310332293557 53.0972935191476 H 0.0 **** 0.06
2283 H 33.31080210419298 101.8824674167987 53.949986945472865 H 0.0 **** 0.06
2284 H 32.414007813625204 103.2789833816164 54.59251072946205 H 0.0 **** 0.06
2285 H 34.19223497934873 103.25524806577948 54.66201931253869 H 0.0 **** 0.06
2286 C 101.07626180973415 61.955784557069535 62.55545948923517 C 0.0 **** -0.24
2287 H 100.89316333350024 60.896622683118835 62.37496446841717 H 0.0 **** 0.06
2288 H 101.73676002954468 62.34689882728725 61.780418056852774 H 0.0 **** 0.06
2289 H 101.54571282984213 62.08245277225464 63.530680621942786 H 0.0 **** 0.06
2290 H 100.13042745881597 62.49660034049384 62.53361851784239 H 0.0 **** 0.06
2291 C 61.0719916870529 62.133397858247825 89.03667283214517 C 0.0 **** -0.24
2292 H 61.04268629675181 61.04315305318452 89.02843077345793 H 0.0 **** 0.06
2293 H 60.05716531720452 62.52188939802311 89.12989960381307 H 0.0 **** 0.06
2294 H 61.514121940954965 62.49095240883647 88.10700464211385 H 0.0 **** 0.06
2295 H 61.671981516944356 62.474800710019814 89.8798944258684 H 0.0 **** 0.06
2296 C 40.08777396752016 55.00186984884791 74.21052044544064 C 0.0 **** -0.24
2297 H 39.556082994264635 55.42608885309519 73.3582291869725 H 0.0 **** 0.06
2298 H 39.80758556288062 53.955806758111535 74.32981333870589 H 0.0 **** 0.06
2299 H 39.824327554843784 55.553940643481795 75.11312903150719 H 0.0 **** 0.06
2300 H 41.16215271885721 55.07382540831467 74.0403261311742 H 0.0 **** 0.06
2301 C 90.40010655483235 44.68840340863699 8.67632939478473 C 0.0 **** -0.24
2302 H 91.39167765639868 44.96698323323358 8.31890325097254 H 0.0 **** 0.06
2303 H 89.65116983539377 45.00153583442517 7.9479405263585505 H 0.0 **** 0.06
2304 H 90.20668310872597 45.17784881987234 9.63104975694381 H 0.0 **** 0.06
2305 H 90.35099829240468 43.60659174413428 8.805288155826261 H 0.0 **** 0.06
2306 C 57.019994441675124 64.29037403672504 87.7155151372416 C 0.0 **** -0.24
2307 H 55.93700956521462 64.41166935504762 87.72036940117027 H 0.0 **** 0.06
2308 H 57.494183163492494 65.25995828516349 87.56650917416084 H 0.0 **** 0.06
2309 H 57.305337367103846 63.61718072247793 86.90754265746136 H 0.0 **** 0.06
2310 H 57.34192817614388 63.870181119931594 88.66919121625645 H 0.0 **** 0.06
2311 C 95.40085383031354 101.00922611872153 47.83826168120484 C 0.0 **** -0.24
2312 H 95.31647220647216 99.92394104670805 47.77709405967019 H 0.0 **** 0.06
2313 H 94.56978147183688 101.46878509845234 47.30240935033626 H 0.0 **** 0.06
2314 H 96.34262559333692 101.32590245514461 47.39104989271837 H 0.0 **** 0.06
2315 H 95.37290264989724 101.31644511843902 48.884219935299484 H 0.0 **** 0.06
2316 C 11.396939456939947 34.91618165606951 94.73687739859929 C 0.0 **** -0.24
2317 H 12.148321877408549 35.58799286004421 95.15038252007415 H 0.0 **** 0.06
2318 H 11.005316256435094 35.335810023501494 93.81038904101587 H 0.0 **** 0.06
2319 H 10.584188629375447 34.79421638636785 95.45308335453157 H 0.0 **** 0.06
2320 H 11.850888641872274 33.94589004636384 94.53301034444257 H 0.0 **** 0.06
2321 C 10.786905226615971 14.942705130084846 49.634329305916395 C 0.0 **** -0.24
2322 H 11.370100803323353 14.583356486723915 50.48125065528211 H 0.0 **** 0.06
2323 H 10.29909296908886 14.098927342786055 49.144726687916375 H 0.0 **** 0.06
2324 H 11.446743364143487 15.442746922494536 48.92498506234778 H 0.0 **** 0.06
2325 H 10.031351952704483 15.64593028184126 49.98542196763749 H 0.0 **** 0.06
2326 C 23.66945091123901 53.298354812788254 16.514256018732 C 0.0 **** -0.24
2327 H 24.206870634423097 54.18759816196515 16.843879597608662 H 0.0 **** 0.06
2328 H 23.17247742644301 52.83700330168974 17.367270374973316 H 0.0 **** 0.06
2329 H 24.373648784433982 52.59051966361359 16.076573292613034 H 0.0 **** 0.06
2330 H 22.92610730153868 53.57913531305175 15.767685850671853 H 0.0 **** 0.06
2331 C 46.12121283413805 65.74637574084733 100.57331008791604 C 0.0 **** -0.24
2332 H 46.442115537268194 64.74154692374185 100.84816804947815 H 0.0 **** 0.06
2333 H 46.99717873764254 66.37385871407929 100.4065939038073 H 0.0 **** 0.06
2334 H 45.51857858105117 66.16899103885368 101.37671945280087 H 0.0 **** 0.06
2335 H 45.527903580808015 65.69997277571468 99.66006790269853 H 0.0 **** 0.06
2336 C 11.963610959207216 6.993388207383308 110.38092177784557 C 0.0 **** -0.24
2337 H 11.177570909742855 7.08859812904077 109.63191343891117 H 0.0 **** 0.06
2338 H 12.070755368892065 5.946544791553183 110.66373140426056 H 0.0 **** 0.06
2339 H 11.700754134970538 7.582766800747006 111.26039415213471 H 0.0 **** 0.06
2340 H 12.904565160502216 7.357184457507113 109.96864171851794 H 0.0 **** 0.06
2341 C 4.068703976574454 107.72708398510079 44.00814493191328 C 0.0 **** -0.24
2342 H 4.776616884284238 108.42896300069403 43.5661114346174 H 0.0 **** 0.06
2343 H 3.45324697091786 108.24739915499941 44.7431090655723 H 0.0 **** 0.06
2344 H 4.614691124880551 106.91986834097419 44.496576438521316 H 0.0 **** 0.06
2345 H 3.4308519255359045 107.31424824080499 43.226539018267545 H 0.0 **** 0.06
2346 C 65.2375700927856 21.70924365433821 38.46828794337404 C 0.0 **** -0.24
2347 H 65.42561196483018 20.93822737632481 37.72082519035993 H 0.0 **** 0.06
2348 H 65.37556943991714 21.289712364118703 39.465189197021715 H 0.0 **** 0.06
2349 H 64.21623033736242 22.074198709461676 38.364046637421865 H 0.0 **** 0.06
2350 H 65.93535123847684 22.53411938040048 38.32126771991781 H 0.0 **** 0.06
2351 C 47.496183560823226 63.62332895447878 81.89134785802045 C 0.0 **** -0.24
2352 H 46.922201575190286 64.27456346924322 82.55097707885474 H 0.0 **** 0.06
2353 H 47.91151511822579 62.797715891343614 82.4700292976328 H 0.0 **** 0.06
2354 H 48.3057567205891 64.19139537762834 81.43477240903422 H 0.0 **** 0.06
2355 H 46.842859389491394 63.22967975518827 81.11248185990905 H 0.0 **** 0.06
2356 C 68.8510959105331 45.19932357254626 2.9823256258202377 C 0.0 **** -0.24
2357 H 69.3889905443524 46.0256017747316 2.516641041522746 H 0.0 **** 0.06
2358 H 69.35480476020547 44.914925573799394 3.906626772704385 H 0.0 **** 0.06
2359 H 68.83252986120351 44.34837210066041 2.3017925591375388 H 0.0 **** 0.06
2360 H 67.83030267011202 45.510111430200396 3.2043739242176343 H 0.0 **** 0.06
2361 C 56.847161995071886 89.78346736240982 92.38893719153322 C 0.0 **** -0.24
2362 H 57.85180382957824 89.89809351087519 91.98144112707419 H 0.0 **** 0.06
2363 H 56.12063155739824 90.18451650019296 91.68190287181892 H 0.0 **** 0.06
2364 H 56.77388100313887 90.32463607743114 93.3323166026108 H 0.0 **** 0.06
2365 H 56.64358201070173 88.7264837048603 92.56073396496245 H 0.0 **** 0.06
2366 C 70.2207204115553 87.09811119907349 29.269603566049476 C 0.0 **** -0.24
2367 H 70.886797048517 87.9591934273684 29.318844483090814 H 0.0 **** 0.06
2368 H 70.7051790051915 86.29611151268443 28.710631391906446 H 0.0 **** 0.06
2369 H 69.29583092472612 87.38162506280389 28.768760643348323 H 0.0 **** 0.06
2370 H 69.99731743784218 86.75358987886577 30.279662773152424 H 0.0 **** 0.06
2371 C 104.31386138522817 55.26986144693968 106.07045489537947 C 0.0 **** -0.24
2372 H 103.46251619376378 55.61064116069165 106.66092422125811 H 0.0 **** 0.06
2373 H 105.1302967991941 54.99150024036536 106.73769151656683 H 0.0 **** 0.06
2374 H 104.64141821762519 56.072010073604034 105.40979655621541 H 0.0 **** 0.06
2375 H 104.01947286003346 54.405257830217984 105.47480951207598 H 0.0 **** 0.06
2376 C 59.79056236270583 95.29690564477721 52.212860969487 C 0.0 **** -0.24
2377 H 60.71972989630825 95.67919354126497 51.78969306572889 H 0.0 **** 0.06
2378 H 59.96638744090865 94.3095071431436 52.640877540822736 H 0.0 **** 0.06
2379 H 59.037994507443386 95.22466542545158 51.42783972869882 H 0.0 **** 0.06
2380 H 59.44060568669198 95.97421810831634 52.99132836896583 H 0.0 **** 0.06
2381 C 46.70473824917325 42.84695095228143 109.51995168812459 C 0.0 **** -0.24
2382 H 45.8887918488176 42.18444571963764 109.23333939617356 H 0.0 **** 0.06
2383 H 46.59573139952859 43.80167126079729 109.00606941382675 H 0.0 **** 0.06
2384 H 47.65676814016404 42.39225570224884 109.24275174103475 H 0.0 **** 0.06
2385 H 46.67997305314767 43.00869936068619 110.59729679998242 H 0.0 **** 0.06
2386 C 58.22967535290789 65.3469411334172 47.51676747382123 C 0.0 **** -0.24
2387 H 58.25573800575489 66.07653701049466 48.32623766554644 H 0.0 **** 0.06
2388 H 59.21695864386572 64.90010742441737 47.397835753741354 H 0.0 **** 0.06
2389 H 57.9401252303808 65.84297373150591 46.59039941811069 H 0.0 **** 0.06
2390 H 57.504834559351565 64.56852802831833 47.753470259589164 H 0.0 **** 0.06
2391 C 8.202860238086316 98.8941792766704 88.99194505356729 C 0.0 **** -0.24
2392 H 8.398938643835152 99.9662225204566 89.03546536933268 H 0.0 **** 0.06
2393 H 8.937950430374116 98.41687336302192 88.3443812879722 H 0.0 **** 0.06
2394 H 7.201992912766144 98.72429704278466 88.59342141819818 H 0.0 **** 0.06
2395 H 8.271457833694427 98.47245211621578 89.99457656425423 H 0.0 **** 0.06
2396 C 10.773286179881723 61.43000417710573 59.80993122444247 C 0.0 **** -0.24
2397 H 11.842697496511732 61.60836774649442 59.929611455422496 H 0.0 **** 0.06
2398 H 10.368236859708418 62.13321024357654 59.08202141971817 H 0.0 **** 0.06
2399 H 10.272373360413852 61.569317856107375 60.76784950176012 H 0.0 **** 0.06
2400 H 10.612265328528792 60.41088227156834 59.46027690566145 H 0.0 **** 0.06
2401 C 18.54115565138557 43.065141387745655 108.38818216140801 C 0.0 **** -0.24
2402 H 18.751915421140243 43.09657794045012 107.31877601529719 H 0.0 **** 0.06
2403 H 18.6770462142067 44.05943992467945 108.81402319163983 H 0.0 **** 0.06
2404 H 19.22280812702146 42.36552464240896 108.87202997695209 H 0.0 **** 0.06
2405 H 17.513217671141664 42.73910510611921 108.5462082088219 H 0.0 **** 0.06
2406 C 31.403115504395267 26.22849662694952 46.08092455777948 C 0.0 **** -0.24
2407 H 30.361859356585185 26.477601620605682 45.8790194666028 H 0.0 **** 0.06
2408 H 31.986319460465957 27.145398462436432 46.16815172557206 H 0.0 **** 0.06
2409 H 31.796369985801398 25.624128623869396 45.26278600894423 H 0.0 **** 0.06
2410 H 31.46775212833252 25.665529219359414 47.011689381237346 H 0.0 **** 0.06
2411 C 37.11887158678664 32.14649715026053 10.1730297307342 C 0.0 **** -0.24
2412 H 36.516596820273634 32.42576053017808 9.30855158947034 H 0.0 **** 0.06
2413 H 37.15514954682416 31.059769018238768 10.254419611383014 H 0.0 **** 0.06
2414 H 36.67341001536727 32.56505779760724 11.075654446335221 H 0.0 **** 0.06
2415 H 38.13027957139698 32.5359555756182 10.052193159354971 H 0.0 **** 0.06
2416 C 34.64886080314005 92.93467806572338 36.65442406900087 C 0.0 **** -0.24
2417 H 35.04360141030111 93.58016665906732 37.43932007694883 H 0.0 **** 0.06
2418 H 33.58324059098089 93.12763384849558 36.52721531262645 H 0.0 **** 0.06
2419 H 34.7988997407503 91.89124924359191 36.932355756067864 H 0.0 **** 0.06
2420 H 35.16993614775026 93.14018326389561 35.71962598388916 H 0.0 **** 0.06
2421 C 108.5115375887199 69.3667795198557 87.96959407243227 C 0.0 **** -0.24
2422 H 109.21774438246625 69.41199238789395 87.13993859734745 H 0.0 **** 0.06
2423 H 108.62676618607634 70.25315596521537 88.59362818347017 H 0.0 **** 0.06
2424 H 108.70870565876697 68.47525325041698 88.56540451692425 H 0.0 **** 0.06
2425 H 107.4947312380243 69.32538887914393 87.57931463438683 H 0.0 **** 0.06
2426 C 105.24289653470032 73.52425211474556 47.05289703678512 C 0.0 **** -0.24
2427 H 106.20011389927006 73.38875257211939 47.55540586859136 H 0.0 **** 0.06
2428 H 105.01249961094808 72.63442200613429 46.46572916248293 H 0.0 **** 0.06
2429 H 105.29772469653685 74.38983228902273 46.39288627178663 H 0.0 **** 0.06
2430 H 104.46109701008584 73.68186577525992 47.79546541115357 H 0.0 **** 0.06
2431 C 95.77641384028811 89.03486087506366 47.48666259748438 C 0.0 **** -0.24
2432 H 96.61330811339033 88.90351720452827 48.17150646539915 H 0.0 **** 0.06
2433 H 94.98800053423645 89.60310398830984 47.979667243931374 H 0.0 **** 0.06
2434 H 95.39082723449991 88.05728632152812 47.1930242308037 H 0.0 **** 0.06
2435 H 96.11379192365283 89.57234976906133 46.60050961929426 H 0.0 **** 0.06
2436 C 112.62720206609586 83.38921348170379 44.749981432537396 C 0.0 **** -0.24
2437 H 112.17488575820637 82.82201738402972 45.5625691809675 H 0.0 **** 0.06
2438 H 112.21394442754605 84.39792692690193 44.73687725632962 H 0.0 **** 0.06
2439 H 112.41452047326855 82.89717177411563 43.80010619189156 H 0.0 **** 0.06
2440 H 113.7062094947879 83.43998604477488 44.899201277165844 H 0.0 **** 0.06
2441 C 31.89407364968409 63.67414957858771 12.222500469093632 C 0.0 **** -0.24
2442 H 32.48565113749362 62.774490658629894 12.053100675181327 H 0.0 **** 0.06
2443 H 31.19776021047491 63.81143717960651 11.394152596276768 H 0.0 **** 0.06
2444 H 32.55601949488053 64.53712187907823 12.287152135284884 H 0.0 **** 0.06
2445 H 31.33606630855175 63.57292110472938 13.152956245220423 H 0.0 **** 0.06
2446 C 111.70520486032211 32.200205157881044 103.54412615257587 C 0.0 **** -0.24
2447 H 111.94024341978042 33.18262148704662 103.95399007734343 H 0.0 **** 0.06
2448 H 112.25585972542048 31.43657769373067 104.09389040460036 H 0.0 **** 0.06
2449 H 111.9901014108403 32.16770541463774 102.49206999184926 H 0.0 **** 0.06
2450 H 110.63532244642487 32.015138712133876 103.63662147124316 H 0.0 **** 0.06
2451 C 81.96391413111775 35.25621076486317 12.645456654523898 C 0.0 **** -0.24
2452 H 81.4385819419868 34.42579322154131 13.117364689729442 H 0.0 **** 0.06
2453 H 82.84199685284284 35.51472433140765 13.238201053001035 H 0.0 **** 0.06
2454 H 81.29950179906558 36.118824594690466 12.584292199800132 H 0.0 **** 0.06
2455 H 82.27479784702757 34.9660824289918 11.642206331803337 H 0.0 **** 0.06
2456 C 43.017941881757366 21.333005667588708 10.537864657946812 C 0.0 **** -0.24
2457 H 43.974222248990685 21.06171066000219 10.09172094575726 H 0.0 **** 0.06
2458 H 42.21396022249647 20.81364433420703 10.01688610288501 H 0.0 **** 0.06
2459 H 42.87053941937572 22.40965744799305 10.453331559719686 H 0.0 **** 0.06
2460 H 43.01509891057579 21.047217751297094 11.590381000756167 H 0.0 **** 0.06
2461 C 64.03378565470189 112.20779324800739 14.89372091454118 C 0.0 **** -0.24
2462 H 64.98922946118998 112.31417007779335 14.379153580222653 H 0.0 **** 0.06
2463 H 63.875851917210845 111.16029160250919 15.153208309763688 H 0.0 **** 0.06
2464 H 63.22978996944547 112.54538420709186 14.23835782982053 H 0.0 **** 0.06
2465 H 64.040449396306 112.811110236262 15.801177008498929 H 0.0 **** 0.06
2466 C 71.65624555314582 77.02518252133376 111.55525546503691 C 0.0 **** -0.24
2467 H 70.73565182632925 77.42328634877398 111.12779674616336 H 0.0 **** 0.06
2468 H 71.41247780761162 76.2891731047836 112.3213911020772 H 0.0 **** 0.06
2469 H 72.23106269349665 77.83685126778326 112.00002555250795 H 0.0 **** 0.06
2470 H 72.24436516662337 76.5507896749979 110.76944750139636 H 0.0 **** 0.06
2471 C 78.46085984095134 62.75929002827886 80.35643594375244 C 0.0 **** -0.24
2472 H 77.97416802372447 62.504091227267416 79.41470292454127 H 0.0 **** 0.06
2473 H 79.53275502132112 62.87102446078402 80.19199583229053 H 0.0 **** 0.06
2474 H 78.28366194655331 61.96653110410151 81.08274616933133 H 0.0 **** 0.06
2475 H 78.05154175133376 63.69649959978948 80.73399564796347 H 0.0 **** 0.06
2476 C 16.09234254291079 10.766099355583833 11.276317999597069 C 0.0 **** -0.24
2477 H 16.581320920500815 11.35371228958061 12.053098249896266 H 0.0 **** 0.06
2478 H 16.819333446295904 10.098244107400525 10.814470655536454 H 0.0 **** 0.06
2479 H 15.680452031228675 11.434917894366635 10.520899353127476 H 0.0 **** 0.06
2480 H 15.28752621284477 10.178660436778063 11.718582172639145 H 0.0 **** 0.06
2481 C 71.96626096988953 55.61961675807391 50.03567607275346 C 0.0 **** -0.24
2482 H 71.92873828783044 54.678968919490664 50.58483457876383 H 0.0 **** 0.06
2483 H 73.0066785963669 55.90682713362093 49.877768333921665 H 0.0 **** 0.06
2484 H 71.45787935040835 56.39580216876765 50.607774607218744 H 0.0 **** 0.06
2485 H 71.47248352550818 55.49640207004361 49.071836169483845 H 0.0 **** 0.06
2486 C 87.08533095946015 89.83301962333371 84.78972824770742 C 0.0 **** -0.24
2487 H 86.62020868455886 88.84998679400437 84.70912938202002 H 0.0 **** 0.06
2488 H 86.31656917613205 90.58338050075994 84.97740171236046 H 0.0 **** 0.06
2489 H 87.60406044650784 90.06672901361975 83.85977499449015 H 0.0 **** 0.06
2490 H 87.7995285179006 89.82981043046539 85.61321349029652 H 0.0 **** 0.06
2491 C 45.56955157616153 34.736111582494075 109.67403856479162 C 0.0 **** -0.24
2492 H 45.767804155630984 33.71928381012045 110.01403654666686 H 0.0 **** 0.06
2493 H 46.51425732281439 35.261530083673826 109.5328299899797 H 0.0 **** 0.06
2494 H 44.971053298889615 35.258429475716596 110.42090686737286 H 0.0 **** 0.06
2495 H 45.02627007373974 34.70360985874238 108.72982078415869 H 0.0 **** 0.06
2496 C 15.834600660729777 7.028787309106406 107.70842399904245 C 0.0 **** -0.24
2497 H 16.443079337619455 7.802267764147132 107.24079377787838 H 0.0 **** 0.06
2498 H 16.082490433183132 6.962676721562872 108.7683487635001 H 0.0 **** 0.06
2499 H 16.032147563962628 6.07098562960482 107.2272716916456 H 0.0 **** 0.06
2500 H 14.779447686995418 7.2807713913552305 107.59752461670651 H 0.0 **** 0.06
2501 C 103.67235734192263 94.48683482994403 17.713624023953486 C 0.0 **** -0.24
2502 H 103.19573528405152 93.5289079598466 17.503995898082934 H 0.0 **** 0.06
2503 H 102.9273443702015 95.28129249926332 17.66219333402441 H 0.0 **** 0.06
2504 H 104.45346484232138 94.67293636846097 16.97657472145019 H 0.0 **** 0.06
2505 H 104.11134307790408 94.46422782681776 18.710112724006535 H 0.0 **** 0.06
2506 C 73.50172644701357 13.179829225605033 102.77706319222958 C 0.0 **** -0.24
2507 H 73.87112138611866 12.286310658483274 103.28088098719283 H 0.0 **** 0.06
2508 H 74.09748371101028 13.364702389564656 101.88304048493072 H 0.0 **** 0.06
2509 H 73.57981850727586 14.034150759792908 103.44992927894054 H 0.0 **** 0.06
2510 H 72.45942073266193 13.031972722662232 102.49623657899173 H 0.0 **** 0.06
2511 C 30.517215324983056 78.68938622835924 82.28838914958376 C 0.0 **** -0.24
2512 H 30.527588782854167 79.21069439569831 81.33121488493893 H 0.0 **** 0.06
2513 H 30.01499594993504 77.72878681208272 82.17310749571385 H 0.0 **** 0.06
2514 H 29.98507421497507 79.29213495711076 83.02379662402211 H 0.0 **** 0.06
2515 H 31.541364298946633 78.5264900358178 82.62414963275802 H 0.0 **** 0.06
2516 C 67.71830153326982 54.10188938263719 87.39679954440601 C 0.0 **** -0.24
2517 H 68.59487380354284 54.72204506208532 87.21052728836321 H 0.0 **** 0.06
2518 H 66.99100632390588 54.251047810281314 86.59841501223809 H 0.0 **** 0.06
2519 H 67.27233969828416 54.37976318440609 88.35199669899177 H 0.0 **** 0.06
2520 H 68.0151521887338 53.05251234180073 87.42583436256643 H 0.0 **** 0.06
2521 C 105.63868536571508 84.83548560766693 58.852002380974476 C 0.0 **** -0.24
2522 H 105.50661540027295 85.7713112186733 59.39489217695286 H 0.0 **** 0.06
2523 H 104.6621641089177 84.41985722548503 58.6018449925405 H 0.0 **** 0.06
2524 H 106.18631931028298 84.12811059678714 59.475191820351974 H 0.0 **** 0.06
2525 H 106.19976011653296 85.02349160407377 57.93662854661785 H 0.0 **** 0.06
2526 C 80.02476901543403 14.886019639770907 50.499229463955686 C 0.0 **** -0.24
2527 H 79.52119380260015 15.153790714293322 49.570881473918774 H 0.0 **** 0.06
2528 H 79.34110515893758 15.026886082292577 51.33681038834672 H 0.0 **** 0.06
2529 H 80.9004346740594 15.520642962871463 50.633918950281696 H 0.0 **** 0.06
2530 H 80.33564726641944 13.842329095232657 50.4547307067227 H 0.0 **** 0.06
2531 C 67.58823806735052 63.53906788805159 39.44637313393628 C 0.0 **** -0.24
2532 H 67.92355400192992 62.601557742089426 39.00455388038981 H 0.0 **** 0.06
2533 H 68.10333601864758 64.37169320735947 38.96657358475599 H 0.0 **** 0.06
2534 H 67.81308013047837 63.53869700369489 40.51324441791016 H 0.0 **** 0.06
2535 H 66.51298211834632 63.644323599062574 39.30112065268929 H 0.0 **** 0.06
2536 C 63.33337454977994 110.98792743332031 110.36013691127064 C 0.0 **** -0.24
2537 H 63.345788092170814 112.05172943506625 110.59692285480844 H 0.0 **** 0.06
2538 H 63.424135674597586 110.85578360640784 109.28123334311178 H 0.0 **** 0.06
2539 H 62.39566168724634 110.55067756243783 110.70286496557826 H 0.0 **** 0.06
2540 H 64.1684952928708 110.49543920921644 110.85853945823062 H 0.0 **** 0.06
2541 C 64.08876039221357 101.9878698433825 95.58772080715397 C 0.0 **** -0.24
2542 H 64.28581263915297 103.02774963719239 95.32448347342878 H 0.0 **** 0.06
2543 H 63.642864710511276 101.4757160681506 94.73566219062408 H 0.0 **** 0.06
2544 H 63.4029145756341 101.95222764933303 96.43463850457644 H 0.0 **** 0.06
2545 H 65.02530597142916 101.49840863968043 95.85739389105998 H 0.0 **** 0.06
2546 C 14.092734994899104 52.28540689557701 57.792437131687336 C 0.0 **** -0.24
2547 H 14.71809490817634 52.81422130536145 58.51175186831114 H 0.0 **** 0.06
2548 H 13.15215602981533 52.822332382966465 57.66620454051048 H 0.0 **** 0.06
2549 H 13.890069952953468 51.278774296636826 58.15830334910504 H 0.0 **** 0.06
2550 H 14.609780808448562 52.22742380587422 56.83491483627421 H 0.0 **** 0.06
2551 C 31.421319300713634 57.9269625811296 82.57193261126696 C 0.0 **** -0.24
2552 H 31.007247622078722 57.99307163081329 81.56545376439007 H 0.0 **** 0.06
2553 H 30.622279789023395 57.70041105913498 83.27904133855031 H 0.0 **** 0.06
2554 H 31.882524751422437 58.878718401748586 82.83714728740065 H 0.0 **** 0.06
2555 H 32.1715337029145 57.13725662525968 82.60534239552956 H 0.0 **** 0.06
2556 C 49.727030873627285 42.36476821405469 35.53058737522932 C 0.0 **** -0.24
2557 H 50.441243416879935 42.39939772496368 34.70767689943446 H 0.0 **** 0.06
2558 H 49.80704958154382 41.403465442177804 36.03976953476604 H 0.0 **** 0.06
2559 H 48.71718852048724 42.48633092088144 35.14059604511965 H 0.0 **** 0.06
2560 H 49.944463583269076 43.1677259657734 36.23408875338177 H 0.0 **** 0.06
2561 C 27.402072995245163 91.85250190887731 4.7308495522329395 C 0.0 **** -0.24
2562 H 27.46446872227162 92.34077929254877 3.7580888488002984 H 0.0 **** 0.06
2563 H 28.405581285528115 91.73120740091014 5.1404484088556615 H 0.0 **** 0.06
2564 H 26.934632542156322 90.87561937649656 4.61726612805586 H 0.0 **** 0.06
2565 H 26.80485935920322 92.46499143693879 5.406739980386874 H 0.0 **** 0.06
2566 C 106.03318646095201 39.73985164112224 22.64203584277314 C 0.0 **** -0.24
2567 H 105.6859191295317 39.38673945758552 23.613070126953914 H 0.0 **** 0.06
2568 H 106.86731767269094 40.428069177036264 22.782418151445256 H 0.0 **** 0.06
2569 H 105.218807469291 40.25385187595333 22.130421665749694 H 0.0 **** 0.06
2570 H 106.35966782544543 38.889979647332325 22.041646824990664 H 0.0 **** 0.06
2571 C 68.49794808916968 34.11057830174502 23.31596435954495 C 0.0 **** -0.24
2572 H 69.15277970679745 34.427039295224745 24.12748660128824 H 0.0 **** 0.06
2573 H 68.08166177664754 33.12981283840992 23.546399193239495 H 0.0 **** 0.06
2574 H 69.06850448619997 34.05476209406697 22.388976587142935 H 0.0 **** 0.06
2575 H 67.68818126650532 34.831200930756665 23.201547972524963 H 0.0 **** 0.06
2576 C 36.46260613496585 109.36451349238068 82.42978753426729 C 0.0 **** -0.24
2577 H 35.44039955619374 109.36555254628954 82.80834535901408 H 0.0 **** 0.06
2578 H 37.15259959367094 109.58275074956154 83.245149380731 H 0.0 **** 0.06
2579 H 36.5626276802563 110.12464178696584 81.65492169916175 H 0.0 **** 0.06
2580 H 36.69272187255376 108.3854853076702 82.00948888991763 H 0.0 **** 0.06
2581 C 107.97405651156686 28.40057172729186 20.49002466401942 C 0.0 **** -0.24
2582 H 106.89953815431926 28.247872995290322 20.591003805115623 H 0.0 **** 0.06
2583 H 108.26012931329166 28.287123010255982 19.44288317077192 H 0.0 **** 0.06
2584 H 108.504510561757 27.66467047821729 21.094059616854384 H 0.0 **** 0.06
2585 H 108.23143582611578 29.403512130955647 20.830194930925437 H 0.0 **** 0.06
2586 C 62.32450390453255 66.5123090076633 73.18037356732265 C 0.0 **** -0.24
2587 H 63.23765471332035 65.93622619066821 73.04041850560637 H 0.0 **** 0.06
2588 H 61.55806670762439 66.15296136123453 72.49225090858098 H 0.0 **** 0.06
2589 H 62.52530967041781 67.56539602826109 72.98197449033813 H 0.0 **** 0.06
2590 H 61.97462162700555 66.39636860206673 74.20616331382669 H 0.0 **** 0.06
2591 C 3.8134348894131964 9.292516974827095 42.139413107073494 C 0.0 **** -0.24
2592 H 3.475216139491156 9.682646803543435 43.099623610933094 H 0.0 **** 0.06
2593 H 4.581079565251271 9.949661037258522 41.73043910043205 H 0.0 **** 0.06
2594 H 2.970081441172903 9.244109820413826 41.45016704838943 H 0.0 **** 0.06
2595 H 4.2267447761541295 8.293296087020735 42.27812492207448 H 0.0 **** 0.06
2596 C 83.19489108367117 59.26086642623147 86.97525851515164 C 0.0 **** -0.24
2597 H 82.38287001532751 59.57368910726666 87.63222440951395 H 0.0 **** 0.06
2598 H 83.88601183591786 60.0918896344719 86.8329000022689 H 0.0 **** 0.06
2599 H 82.78557882159197 58.95885835415618 86.01117553541096 H 0.0 **** 0.06
2600 H 83.72345274130058 58.421245635864636 87.42533386932786 H 0.0 **** 0.06
2601 C 59.61321012364692 14.28450766713945 95.11212967147694 C 0.0 **** -0.24
2602 H 60.176976376105245 14.74523058865259 95.92333704008513 H 0.0 **** 0.06
2603 H 60.21618260807202 13.501854801519755 94.64967840777379 H 0.0 **** 0.06
2604 H 59.36570601268363 15.039946471157691 94.36688992868807 H 0.0 **** 0.06
2605 H 58.69615324714289 13.84896451170323 95.50826753527951 H 0.0 **** 0.06
2606 C 21.04782454636552 90.64086317645089 98.49013275355554 C 0.0 **** -0.24
2607 H 19.96238955463133 90.57383713656395 98.41063540609636 H 0.0 **** 0.06
2608 H 21.327229792097853 91.64874436552537 98.79977722990819 H 0.0 **** 0.06
2609 H 21.497261804936215 90.42075734446368 97.52241952363713 H 0.0 **** 0.06
2610 H 21.403510180204307 89.92277292137643 99.22802666391937 H 0.0 **** 0.06
2611 C 32.398458024524246 41.144182181764165 44.755840442320505 C 0.0 **** -0.24
2612 H 31.696372225542518 40.31124786222563 44.7247066091698 H 0.0 **** 0.06
2613 H 32.2237064853835 41.73278117774751 45.65739055535835 H 0.0 **** 0.06
2614 H 32.25488670621198 41.773110083965804 43.87741324397825 H 0.0 **** 0.06
2615 H 33.418579329223746 40.75925675184419 44.76474952319609 H 0.0 **** 0.06
2616 C 73.51270709477888 9.651726693227317 8.41616321254736 C 0.0 **** -0.24
2617 H 73.99602815268508 9.42516175117315 9.36633711893019 H 0.0 **** 0.06
2618 H 72.66954564075394 10.321173399073942 8.588683652516096 H 0.0 **** 0.06
2619 H 73.15667369948093 8.728008248157963 7.961006323948027 H 0.0 **** 0.06
2620 H 74.22874299619443 10.132665463071788 7.750853664553418 H 0.0 **** 0.06
2621 C 2.7233599839131557 96.03545539333385 39.2296840314138 C 0.0 **** -0.24
2622 H 2.79477701391977 95.4350799271339 38.32223080986819 H 0.0 **** 0.06
2623 H 3.6302630919232683 95.90962670912816 39.82006290447964 H 0.0 **** 0.06
2624 H 1.8617187656648753 95.71021401737855 39.813265119351286 H 0.0 **** 0.06
2625 H 2.605457179103553 97.08535394593477 38.962124077253804 H 0.0 **** 0.06
2626 C 0.22616342016636004 26.28740253455014 103.05102919657236 C 0.0 **** -0.24
2627 H 1.0204623921805593 26.494020468351607 103.76786357449487 H 0.0 **** 0.06
2628 H -0.005664992106133582 27.194717618623166 102.49301187683466 H 0.0 **** 0.06
2629 H -0.6640453198147691 25.94999159253892 103.58263120132347 H 0.0 **** 0.06
2630 H 0.5532864722418465 25.51010639152852 102.36046015330453 H 0.0 **** 0.06
2631 C 69.3513856370777 29.71556685327208 40.963774781307535 C 0.0 **** -0.24
2632 H 70.22500419420342 29.553693345027227 41.595465364684806 H 0.0 **** 0.06
2633 H 69.43958463399363 30.67891680472397 40.461592351903114 H 0.0 **** 0.06
2634 H 68.45169701526564 29.707256249853472 41.580339291902504 H 0.0 **** 0.06
2635 H 69.28936494159313 28.921370782077076 40.219413003922064 H 0.0 **** 0.06
2636 C 64.01919159356993 9.372044475442294 24.914097460979406 C 0.0 **** -0.24
2637 H 63.311697726851776 9.6611666480193 25.691481669828363 H 0.0 **** 0.06
2638 H 63.48820776053992 9.237519627530324 23.97163280161635 H 0.0 **** 0.06
2639 H 64.5051515633055 8.437413359840956 25.195068999766022 H 0.0 **** 0.06
2640 H 64.7719382235324 10.152674843983835 24.799816301321727 H 0.0 **** 0.06
2641 C 37.06453505247638 40.86366347083416 13.615518568598674 C 0.0 **** -0.24
2642 H 36.79192576907248 40.452493710487516 12.644438294676931 H 0.0 **** 0.06
2643 H 37.4558405088625 40.068333781727105 14.250313137923385 H 0.0 **** 0.06
2644 H 36.1826685470875 41.30246100294444 14.083744646056687 H 0.0 **** 0.06
2645 H 37.82603227990669 41.63284835444107 13.483620791728754 H 0.0 **** 0.06
2646 C 78.79337787710529 45.94123287692801 47.50049188283924 C 0.0 **** -0.24
2647 H 78.79991926055081 46.494973290722356 46.56151522280707 H 0.0 **** 0.06
2648 H 79.36645827865027 45.02138600890186 47.38374863383169 H 0.0 **** 0.06
2649 H 77.76568852650018 45.6982138170502 47.77058210428975 H 0.0 **** 0.06
2650 H 79.24028940114027 46.55193691390798 48.28503892688931 H 0.0 **** 0.06
2651 C 84.02867693012732 6.023945422889412 44.174543514047116 C 0.0 **** -0.24
2652 H 82.99308347129084 5.7117624092369965 44.044657915061634 H 0.0 **** 0.06
2653 H 84.50597348463705 6.115019950755382 43.1984795514328 H 0.0 **** 0.06
2654 H 84.55969932987242 5.281721563513642 44.770258482525946 H 0.0 **** 0.06
2655 H 84.05720761416242 6.986916915379055 44.68423781837811 H 0.0 **** 0.06
2656 C 2.7226458026623277 112.66970727195833 1.2431394879214963 C 0.0 **** -0.24
2657 H 3.37699104703961 113.14221245851303 1.9760948554133364 H 0.0 **** 0.06
2658 H 1.6920077984742647 112.7134529728335 1.5961140516993737 H 0.0 **** 0.06
2659 H 3.0177055390778946 111.62931524719671 1.111107261824273 H 0.0 **** 0.06
2660 H 2.8042560350983763 113.19517237972832 0.29190736451116095 H 0.0 **** 0.06
2661 C 55.07944822907376 57.99932748495789 16.998376609930858 C 0.0 **** -0.24
2662 H 54.77342396945036 57.01307358453906 17.347708546486444 H 0.0 **** 0.06
2663 H 54.77024971054371 58.75296105153947 17.72263147786441 H 0.0 **** 0.06
2664 H 54.61141615454369 58.20562771675313 16.0359044942019 H 0.0 **** 0.06
2665 H 56.163739696790344 58.02471049781866 16.887479651707906 H 0.0 **** 0.06
2666 C 112.34471712356834 31.16749501432495 19.845321146478454 C 0.0 **** -0.24
2667 H 112.33706507834341 31.014352507418792 18.765955947241366 H 0.0 **** 0.06
2668 H 111.58526960022259 31.903470164506977 20.11270949736931 H 0.0 **** 0.06
2669 H 113.32575992283303 31.528821151691346 20.153236429909413 H 0.0 **** 0.06
2670 H 112.13019254961611 30.224466854873427 20.348206316090085 H 0.0 **** 0.06
2671 C 33.52518241349985 86.03309853781795 42.084894117313524 C 0.0 **** -0.24
2672 H 34.092311606273796 86.89588360379847 41.73414798057547 H 0.0 **** 0.06
2673 H 33.45110603191938 86.06522728624563 43.17187333494712 H 0.0 **** 0.06
2674 H 34.03296528052738 85.11775602769498 41.78196012677563 H 0.0 **** 0.06
2675 H 32.52517983548313 86.05544489293683 41.65080205149695 H 0.0 **** 0.06
2676 C 90.25206238414506 80.87629498939359 92.91502313672237 C 0.0 **** -0.24
2677 H 89.28427771864918 80.61257217633917 92.48894276160979 H 0.0 **** 0.06
2678 H 90.7064865668369 79.98978918487163 93.35882780272058 H 0.0 **** 0.06
2679 H 90.11562744324436 81.6379914118734 93.68214920839463 H 0.0 **** 0.06
2680 H 90.90238328074778 81.26363307729017 92.12962678911418 H 0.0 **** 0.06
2681 C 27.15364113930599 77.03495626058475 82.04902807301681 C 0.0 **** -0.24
2682 H 27.9770702239436 76.59409592770675 82.61021882067865 H 0.0 **** 0.06
2683 H 27.201562276431787 76.70141146634143 81.01182322589898 H 0.0 **** 0.06
2684 H 27.229499752206607 78.12175884807544 82.08577047937064 H 0.0 **** 0.06
2685 H 26.20637935268786 76.72194869195823 82.48909034864411 H 0.0 **** 0.06
2686 C 44.15928845170981 111.92929353965084 80.82598599555641 C 0.0 **** -0.24
2687 H 43.702113954966904 111.40310994118877 81.66367965192035 H 0.0 **** 0.06
2688 H 43.58023737605052 111.74361910259574 79.921079218642 H 0.0 **** 0.06
2689 H 45.179073047885055 111.57182155909985 80.68481402221556 H 0.0 **** 0.06
2690 H 44.17515759852202 112.99963718117706 81.03356754231237 H 0.0 **** 0.06
2691 C 7.66810796992975 94.76180510654547 37.24922636489805 C 0.0 **** -0.24
2692 H 7.842262302098902 94.12888059782105 38.11878324341734 H 0.0 **** 0.06
2693 H 6.61599785199806 94.70854520023397 36.96639219746477 H 0.0 **** 0.06
2694 H 8.284954621738194 94.4182461472299 36.4192692592041 H 0.0 **** 0.06
2695 H 7.927035250126721 95.79264849748176 37.49263343850865 H 0.0 **** 0.06
2696 C 2.1946130772713275 74.43469474474574 28.682501508694116 C 0.0 **** -0.24
2697 H 3.0803531295441644 75.03488313605715 28.473152823484696 H 0.0 **** 0.06
2698 H 1.6410043430242638 74.26921670342819 27.75776217877717 H 0.0 **** 0.06
2699 H 1.560683639013149 74.96040428741455 29.396809813838047 H 0.0 **** 0.06
2700 H 2.496920202098636 73.47584735838157 29.101763233702002 H 0.0 **** 0.06
2701 C 15.487015044713573 1.741000956115938 55.239381260242 C 0.0 **** -0.24
2702 H 14.49879238406507 2.0937288934094553 54.94336032377868 H 0.0 **** 0.06
2703 H 16.248689949999942 2.393790714228766 54.81258121421678 H 0.0 **** 0.06
2704 H 15.63404705290823 0.7244852976590863 54.87550373891281 H 0.0 **** 0.06
2705 H 15.565902603545922 1.7532008761054652 56.32648075331127 H 0.0 **** 0.06
2706 C 92.924309385148 72.46154356888192 27.20070331319969 C 0.0 **** -0.24
2707 H 93.06570795477711 72.99059234027584 28.142995313887205 H 0.0 **** 0.06
2708 H 93.84585403498338 71.94226490615733 26.933859479039313 H 0.0 **** 0.06
2709 H 92.67031186138163 73.17585165775637 26.417778936152878 H 0.0 **** 0.06
2710 H 92.11613526615716 71.73721019425776 27.307596762390915 H 0.0 **** 0.06
2711 C 29.603070542955273 8.11481573361226 84.46725731514366 C 0.0 **** -0.24
2712 H 28.963095381602955 7.30635001413566 84.82120276772238 H 0.0 **** 0.06
2713 H 30.598093598039625 7.722624539168635 84.25296855414058 H 0.0 **** 0.06
2714 H 29.672654730901037 8.884752483111356 85.2349270146461 H 0.0 **** 0.06
2715 H 29.1771347623938 8.542893369746935 83.55936707657753 H 0.0 **** 0.06
2716 C 86.12214741059196 79.31087793749407 14.289304814734578 C 0.0 **** -0.24
2717 H 85.56536882862082 78.9795110405683 13.412676050490518 H 0.0 **** 0.06
2718 H 85.53871035264709 80.05583761027614 14.83062606084576 H 0.0 **** 0.06
2719 H 87.06875827142193 79.74992745785025 13.973976738048748 H 0.0 **** 0.06
2720 H 86.31711261201804 78.45802747482256 14.939614785184176 H 0.0 **** 0.06
2721 C 43.97016313281026 5.5342005320087395 45.35171209182448 C 0.0 **** -0.24
2722 H 43.75275234949322 6.485672845990209 44.866161487430986 H 0.0 **** 0.06
2723 H 43.28002844342572 5.38433945773798 46.183286671181634 H 0.0 **** 0.06
2724 H 44.994083843307834 5.542486183848624 45.725561158154676 H 0.0 **** 0.06
2725 H 43.85240992575123 4.72438696860587 44.631531852586704 H 0.0 **** 0.06
2726 C 20.098985997338616 51.19425144685539 63.86960175411043 C 0.0 **** -0.24
2727 H 20.391933274770707 50.61405375062091 64.74472113212698 H 0.0 **** 0.06
2728 H 20.83738636062816 51.97518088566102 63.68720789720876 H 0.0 **** 0.06
2729 H 19.124183346894313 51.649443654880855 64.04491929554433 H 0.0 **** 0.06
2730 H 20.04191447408138 50.53705721953884 63.00188925702137 H 0.0 **** 0.06
2731 C 12.15630165707121 90.54857998051654 104.2383948377248 C 0.0 **** -0.24
2732 H 12.975285166390364 91.26422983321794 104.17885833786508 H 0.0 **** 0.06
2733 H 11.724358856482752 90.57429465372914 105.23872355891703 H 0.0 **** 0.06
2734 H 12.534146935403939 89.54662884417925 104.03129983901786 H 0.0 **** 0.06
2735 H 11.393338503251982 90.80790713963754 103.50554427623192 H 0.0 **** 0.06
2736 C 25.663848549140454 31.386171497820698 93.73454335790888 C 0.0 **** -0.24
2737 H 26.058518564611546 30.370565492582465 93.77689264815842 H 0.0 **** 0.06
2738 H 25.77075235610866 31.857445131439142 94.7125337644145 H 0.0 **** 0.06
2739 H 24.6095065352892 31.355343932612968 93.45886057586273 H 0.0 **** 0.06
2740 H 26.217361062664025 31.96074506811695 92.99191189191629 H 0.0 **** 0.06
2741 C 78.85800786560733 101.87854781703066 17.312055966211517 C 0.0 **** -0.24
2742 H 79.8380751525315 102.29011808222538 17.06773342237301 H 0.0 **** 0.06
2743 H 78.63775033150901 101.04644016315302 16.643539814350987 H 0.0 **** 0.06
2744 H 78.09980816124752 102.65224274770071 17.192048719706463 H 0.0 **** 0.06
2745 H 78.85855744569878 101.52618571534583 18.3429773851675 H 0.0 **** 0.06
2746 C 30.182461127678522 63.90747761803749 84.05177740383652 C 0.0 **** -0.24
2747 H 29.649820755998107 63.00483303072858 83.75253106959025 H 0.0 **** 0.06
2748 H 30.45519325124289 63.83494887539203 85.10523373151568 H 0.0 **** 0.06
2749 H 29.540980949352715 64.77470206502005 83.90140047575863 H 0.0 **** 0.06
2750 H 31.084050636278818 64.01270136477126 83.44867485353211 H 0.0 **** 0.06
2751 C 82.99035081520071 73.57665713342033 1.6734817195608418 C 0.0 **** -0.24
2752 H 83.18161670731382 72.50532451200743 1.603759236674474 H 0.0 **** 0.06
2753 H 83.61561139891856 74.00699490751961 2.456279291307059 H 0.0 **** 0.06
2754 H 81.93978186052561 73.74261319346888 1.9155311876059837 H 0.0 **** 0.06
2755 H 83.22295574626585 74.0494823199264 0.7197833248406234 H 0.0 **** 0.06
2756 C 28.936389266897756 85.1139975386709 57.83826390832567 C 0.0 **** -0.24
2757 H 28.828357663112556 84.23189513655961 58.46879453523704 H 0.0 **** 0.06
2758 H 28.4959440926903 84.91647579565529 56.86080975724843 H 0.0 **** 0.06
2759 H 29.994035185347776 85.3484383749634 57.71946166993058 H 0.0 **** 0.06
2760 H 28.426362856884587 85.95732509468542 58.30308327472662 H 0.0 **** 0.06
2761 C 70.54492750992026 22.656758312562545 107.11474951416452 C 0.0 **** -0.24
2762 H 69.46838739598385 22.825135672481053 107.1464961441025 H 0.0 **** 0.06
2763 H 70.91082164231167 22.457110634533038 108.12261793790809 H 0.0 **** 0.06
2764 H 71.03972825902088 23.542913642482404 106.71804269032987 H 0.0 **** 0.06
2765 H 70.76026501421026 21.8022248660306 106.47421171767874 H 0.0 **** 0.06
2766 C 110.09824178410825 76.06934080436034 92.53313984951069 C 0.0 **** -0.24
2767 H 109.17472278188616 75.52469048671122 92.34003106900207 H 0.0 **** 0.06
2768 H 110.73368615259174 75.4814232741613 93.19600926602646 H 0.0 **** 0.06
2769 H 109.86595914364113 77.02397540308561 93.00476462136666 H 0.0 **** 0.06
2770 H 110.61906620331196 76.2451906204617 91.59241879548009 H 0.0 **** 0.06
2771 C 11.043448350130745 61.00465023959283 18.02397674576423 C 0.0 **** -0.24
2772 H 10.240941240390612 60.97275464155951 17.28726962578969 H 0.0 **** 0.06
2773 H 11.259794610501501 59.992459621418654 18.368312250619454 H 0.0 **** 0.06
2774 H 10.73663147558517 61.618485755425915 18.870383096833166 H 0.0 **** 0.06
2775 H 11.937280620732054 61.431869347329474 17.569659585885915 H 0.0 **** 0.06
2776 C 111.43731302656641 26.346246195680763 110.86763941558429 C 0.0 **** -0.24
2777 H 111.16888545655081 26.35040479796936 109.81104026909256 H 0.0 **** 0.06
2778 H 112.4606117635945 26.704302197559656 110.98300845529428 H 0.0 **** 0.06
2779 H 111.36091755506504 25.33142459178015 111.25718812464841 H 0.0 **** 0.06
2780 H 110.75993334499691 26.998675572196944 111.41713734272194 H 0.0 **** 0.06
2781 C 1.7951857177389137 36.72423255482214 73.70350243028184 C 0.0 **** -0.24
2782 H 2.6458968085616963 37.39942229794684 73.80355204496848 H 0.0 **** 0.06
2783 H 1.9810245662137476 36.02334461424212 72.88926324892819 H 0.0 **** 0.06
2784 H 0.8970070172576765 37.30284896249954 73.4880924622876 H 0.0 **** 0.06
2785 H 1.657778553998427 36.173833260313046 74.6339540662677 H 0.0 **** 0.06
2786 C 112.6184070680539 106.84112351015523 68.97415356164225 C 0.0 **** -0.24
2787 H 111.9400705723326 107.08400484154456 69.79111412338133 H 0.0 **** 0.06
2788 H 113.26700202807521 106.01666857341999 69.27345797453737 H 0.0 **** 0.06
2789 H 113.22622757710427 107.71333008424469 68.73460548591868 H 0.0 **** 0.06
2790 H 112.04043614933768 106.54890370663354 68.09675076933311 H 0.0 **** 0.06
2791 C 92.77784346963742 35.95194437492543 21.237207696815545 C 0.0 **** -0.24
2792 H 92.29629883484776 35.629818585464335 20.313319611858248 H 0.0 **** 0.06
2793 H 93.7437328813522 36.40136621708355 21.00429762329128 H 0.0 **** 0.06
2794 H 92.92411090133095 35.09170546622559 21.89055236639703 H 0.0 **** 0.06
2795 H 92.14689225753344 36.68636299477362 21.739015743122422 H 0.0 **** 0.06
2796 C 0.5458613655474664 71.64472004440364 47.800543379779974 C 0.0 **** -0.24
2797 H 0.6449482259474735 72.38921754603379 48.590295642770485 H 0.0 **** 0.06
2798 H 0.44120361182797296 70.65447148588794 48.24509708563725 H 0.0 **** 0.06
2799 H 1.4336275063144512 71.66710919240319 47.167893050640565 H 0.0 **** 0.06
2800 H -0.3343692474372233 71.86782045806387 47.198619302798505 H 0.0 **** 0.06
2801 C 3.11183832577051 68.89746366172471 57.256589147909835 C 0.0 **** -0.24
2802 H 3.4665559851057726 69.61817577402456 56.51946442884619 H 0.0 **** 0.06
2803 H 3.928918031685958 68.63453350892522 57.92885539884755 H 0.0 **** 0.06
2804 H 2.7574751330266487 68.00108321648614 56.747038120654715 H 0.0 **** 0.06
2805 H 2.2957855161540497 69.33660741471004 57.830107189216896 H 0.0 **** 0.06
2806 C 13.972958901659922 26.931595098496786 50.78672271791269 C 0.0 **** -0.24
2807 H 14.358905706258668 27.821336536362708 51.283905390055914 H 0.0 **** 0.06
2808 H 13.019376364136605 27.16419596258794 50.31269574283739 H 0.0 **** 0.06
2809 H 13.830441484242783 26.13872197673659 51.520500850440236 H 0.0 **** 0.06
2810 H 14.684398928486587 26.60189776440653 50.029248510522294 H 0.0 **** 0.06
2811 C 85.1812342555867 86.97549436847157 103.5464693953297 C 0.0 **** -0.24
2812 H 85.52915966695232 85.95528733050512 103.71126608904714 H 0.0 **** 0.06
2813 H 84.39465239664298 86.9727090458073 102.78987519503508 H 0.0 **** 0.06
2814 H 86.01261308760161 87.59161132431424 103.2045607805779 H 0.0 **** 0.06
2815 H 84.78762572925865 87.37964562978306 104.47883597863938 H 0.0 **** 0.06
2816 C 59.347535266082275 80.67709304332473 37.129793387559715 C 0.0 **** -0.24
2817 H 60.08472132119516 81.47521033071214 37.21659141643562 H 0.0 **** 0.06
2818 H 59.8349601362857 79.71367353267621 37.28253266899159 H 0.0 **** 0.06
2819 H 58.89924664435449 80.70410715891259 36.13539604447698 H 0.0 **** 0.06
2820 H 58.570696849469186 80.81596983736844 37.8817572873584 H 0.0 **** 0.06
2821 C 46.8828462281721 18.715014133389552 96.27822349833971 C 0.0 **** -0.24
2822 H 47.521805856254446 18.904208171600366 95.41453796074381 H 0.0 **** 0.06
2823 H 47.39470305655399 18.045223442064252 96.96850123223555 H 0.0 **** 0.06
2824 H 45.95183610887497 18.25544806714457 95.94759904018537 H 0.0 **** 0.06
2825 H 46.663910465050975 19.65807312629806 96.78005246845393 H 0.0 **** 0.06
2826 C 86.93172862784107 107.66884516001376 102.22043673448889 C 0.0 **** -0.24
2827 H 85.90319346591619 107.41594710489208 101.96498746940125 H 0.0 **** 0.06
2828 H 86.95384708049136 108.16206262189866 103.19287684689442 H 0.0 **** 0.06
2829 H 87.34036364620567 108.3388057105894 101.46415460819475 H 0.0 **** 0.06
2830 H 87.53108295175187 106.7586589382807 102.2604478809879 H 0.0 **** 0.06
2831 C 49.276659911263465 58.36500256092722 43.34527892369771 C 0.0 **** -0.24
2832 H 49.92741633278714 57.52734241507807 43.59759616535961 H 0.0 **** 0.06
2833 H 49.69410702218089 59.28557161005591 43.75356306771677 H 0.0 **** 0.06
2834 H 48.28610671493144 58.19585571999005 43.76728258396517 H 0.0 **** 0.06
2835 H 49.200577250263954 58.45020325331109 42.260335710196216 H 0.0 **** 0.06
2836 C 99.28211124668016 13.682045496903015 96.95637588708377 C 0.0 **** -0.24
2837 H 98.67263258950484 14.16967562618106 96.19540018040553 H 0.0 **** 0.06
2838 H 99.24904060139298 12.60185475159932 96.81009620974513 H 0.0 **** 0.06
2839 H 98.89517384232153 13.92740533590586 97.94465636354019 H 0.0 **** 0.06
2840 H 100.31284608860852 14.028380783994578 96.87276359607318 H 0.0 **** 0.06
2841 C 79.01740421214043 39.185235146575906 83.63720897344001 C 0.0 **** -0.24
2842 H 79.49953191713001 38.22370133467638 83.45993513896104 H 0.0 **** 0.06
2843 H 79.77197962354677 39.97048080545272 83.66782803689154 H 0.0 **** 0.06
2844 H 78.4848243565931 39.153938404451935 84.588177243058 H 0.0 **** 0.06
2845 H 78.31083703754535 39.39015651760343 82.83192918348732 H 0.0 **** 0.06
2846 C 57.350189172674334 27.89855576982471 102.7250161154571 C 0.0 **** -0.24
2847 H 57.527341375464516 28.903902564168668 102.34227424700339 H 0.0 **** 0.06
2848 H 57.95088597118104 27.18514503002423 102.15922466544103 H 0.0 **** 0.06
2849 H 56.29492716864303 27.649833883084213 102.61971736751312 H 0.0 **** 0.06
2850 H 57.630817522552604 27.855889352681608 103.77701452266416 H 0.0 **** 0.06
2851 C 38.85456293823603 29.888744660808754 40.70555592539044 C 0.0 **** -0.24
2852 H 38.83780770106972 29.406025200998045 41.68326019425429 H 0.0 **** 0.06
2853 H 37.94461274256264 30.4747363826707 40.57440044102552 H 0.0 **** 0.06
2854 H 38.914439238273474 29.12880613614678 39.92693367157953 H 0.0 **** 0.06
2855 H 39.72266286300004 30.545093347770035 40.64067650110965 H 0.0 **** 0.06
2856 C 85.02290572073977 31.57243221973198 75.22232513851043 C 0.0 **** -0.24
2857 H 85.23715386056068 31.31952604261687 76.26019243694623 H 0.0 **** 0.06
2858 H 84.23680249194692 30.918505096744354 74.84414337077516 H 0.0 **** 0.06
2859 H 85.92430311146992 31.441903817938112 74.62283075322006 H 0.0 **** 0.06
2860 H 84.69431244528576 32.60955516133265 75.16192808215357 H 0.0 **** 0.06
2861 C 71.03742290515802 37.017433261932126 9.387027016263602 C 0.0 **** -0.24
2862 H 70.70872957161427 37.950469988896714 8.927946828099508 H 0.0 **** 0.06
2863 H 71.69525469277772 37.23951504128911 10.228056436321523 H 0.0 **** 0.06
2864 H 71.5766922041997 36.42103736295991 8.650944169911554 H 0.0 **** 0.06
2865 H 70.16965128123766 36.460954890829726 9.740412911754447 H 0.0 **** 0.06
2866 C 89.66709329898353 38.97074435950932 50.22788537718826 C 0.0 **** -0.24
2867 H 90.61754073804204 39.041925223913196 50.75583545599491 H 0.0 **** 0.06
2868 H 89.28766626469172 39.972322582822976 50.02361932458886 H 0.0 **** 0.06
2869 H 88.94937074155501 38.42872547373625 50.84381009451976 H 0.0 **** 0.06
2870 H 89.8133633692668 38.43858934477607 49.28737564543489 H 0.0 **** 0.06
2871 C 79.98063161405037 76.69766854848419 97.23175620493984 C 0.0 **** -0.24
2872 H 79.26770223218159 77.20371981798604 96.5817045670492 H 0.0 **** 0.06
2873 H 79.88091809438436 75.61824921988426 97.10954071566755 H 0.0 **** 0.06
2874 H 79.77947167893899 76.96550650818318 98.26947531532534 H 0.0 **** 0.06
2875 H 80.99318847475388 77.00107982082099 96.96802428751351 H 0.0 **** 0.06
2876 C 51.839785940889804 79.97195058285075 90.38207023739764 C 0.0 **** -0.24
2877 H 52.69159687350481 79.80140518521705 91.04044611292915 H 0.0 **** 0.06
2878 H 51.8346434201601 79.21982725498512 89.59341415220302 H 0.0 **** 0.06
2879 H 51.91701413419033 80.96389832621583 89.93842985027266 H 0.0 **** 0.06
2880 H 50.91651893248897 79.90166152323891 90.95813180683916 H 0.0 **** 0.06
2881 C 92.31342931519646 38.176320756202784 54.88373580897638 C 0.0 **** -0.24
2882 H 92.30784080345825 37.11460942733538 54.63806899252069 H 0.0 **** 0.06
2883 H 92.52629720727606 38.3028671791416 55.945825129334594 H 0.0 **** 0.06
2884 H 91.33816196528721 38.606652736073585 54.654141761820256 H 0.0 **** 0.06
2885 H 93.08141728476437 38.68115368226083 54.296907352230164 H 0.0 **** 0.06
2886 C 107.48779071155559 36.683746554983955 90.72024578607932 C 0.0 **** -0.24
2887 H 107.10831202178798 35.730850484293 90.3515584073076 H 0.0 **** 0.06
2888 H 108.5063519709979 36.55294870268084 91.08396023728062 H 0.0 **** 0.06
2889 H 106.85374706871791 37.03626410955446 91.53415453885589 H 0.0 **** 0.06
2890 H 107.48082582977817 37.41546128822358 89.91127697925344 H 0.0 **** 0.06
2891 C 1.646697971072963 35.74960789803757 104.85373286844202 C 0.0 **** -0.24
2892 H 0.569163412450477 35.70086054952991 104.69403499947262 H 0.0 **** 0.06
2893 H 2.1617741987235704 35.45418315887537 103.9397076563705 H 0.0 **** 0.06
2894 H 1.923896349340799 35.07350095668241 105.6626728330279 H 0.0 **** 0.06
2895 H 1.9288261896522698 36.76880332436167 105.1183793447926 H 0.0 **** 0.06
2896 C 3.436351795505857 73.10569503325036 50.620293360335666 C 0.0 **** -0.24
2897 H 3.159792303358188 73.10884282337344 49.56611438567978 H 0.0 **** 0.06
2898 H 4.422263575593917 73.5572496634681 50.738347869906875 H 0.0 **** 0.06
2899 H 3.459918907865813 72.07980117562505 50.98667939388986 H 0.0 **** 0.06
2900 H 2.7039696552272403 73.67810479991834 51.18892400336898 H 0.0 **** 0.06
2901 C 93.01495328350845 47.62750931672511 73.69710871188028 C 0.0 **** -0.24
2902 H 92.16789759967773 47.62818659160078 73.0113911480372 H 0.0 **** 0.06
2903 H 93.01458971829953 46.70280397497942 74.27510641821965 H 0.0 **** 0.06
2904 H 92.93686181556001 48.479618957756486 74.37267610237873 H 0.0 **** 0.06
2905 H 93.94276391219358 47.69918317443651 73.12845437472149 H 0.0 **** 0.06
2906 C 89.63285059492446 17.328305805742616 56.02773625267125 C 0.0 **** -0.24
2907 H 88.98740667755112 16.881015503278434 55.271408970144535 H 0.0 **** 0.06
2908 H 90.62294905163156 17.499353004196564 55.60521372048393 H 0.0 **** 0.06
2909 H 89.7117741625714 16.655531712409925 56.881353524208606 H 0.0 **** 0.06
2910 H 89.20703138478044 18.2775051514173 56.35199688076054 H 0.0 **** 0.06
2911 C 48.76439630537619 36.84285987473584 95.65420091466882 C 0.0 **** -0.24
2912 H 49.46229767175042 37.30997265790376 96.34818985626029 H 0.0 **** 0.06
2913 H 48.00310594883081 37.566721472430515 95.36183330016158 H 0.0 **** 0.06
2914 H 48.28750939421187 35.9900835495024 96.13740356836277 H 0.0 **** 0.06
2915 H 49.30326656048031 36.504645592604675 94.76953188168892 H 0.0 **** 0.06
2916 C 39.301409484660304 101.28136800828719 44.35123931778787 C 0.0 **** -0.24
2917 H 38.61581593138689 101.41799533829902 43.51407988032952 H 0.0 **** 0.06
2918 H 39.14467726666265 100.29623486294213 44.79152573930617 H 0.0 **** 0.06
2919 H 39.11686390113627 102.04965548979266 45.10127304592788 H 0.0 **** 0.06
2920 H 40.32822969730474 101.36130030618114 43.9939656343725 H 0.0 **** 0.06
2921 C 68.8106954805626 69.71415427695376 89.7029752248464 C 0.0 **** -0.24
2922 H 69.00111704824135 68.74452904418479 90.16472408706758 H 0.0 **** 0.06
2923 H 67.75044556081491 69.80136807337146 89.46798546744881 H 0.0 **** 0.06
2924 H 69.39590629003504 69.80075222028569 88.78766463536763 H 0.0 **** 0.06
2925 H 69.09701534994096 70.50772163972448 90.3935410736984 H 0.0 **** 0.06
2926 C 26.380385229924855 54.595214776253044 94.52316754360521 C 0.0 **** -0.24
2927 H 26.176957006906036 55.29402705684589 95.3346937325071 H 0.0 **** 0.06
2928 H 26.981876851440916 55.089997216142386 93.76100842551236 H 0.0 **** 0.06
2929 H 25.43918101361686 54.26319693372109 94.08527925799243 H 0.0 **** 0.06
2930 H 26.924007380720184 53.73502552882785 94.91337490303587 H 0.0 **** 0.06
2931 C 19.241342056243667 97.70081360828411 92.06298583238572 C 0.0 **** -0.24
2932 H 18.699217911831283 98.59502720616038 91.75585747407308 H 0.0 **** 0.06
2933 H 19.369649727393522 97.04093527142282 91.20535941408957 H 0.0 **** 0.06
2934 H 18.67645357353169 97.18288673546493 92.83886289479813 H 0.0 **** 0.06
2935 H 20.218072855774125 97.98457426684149 92.45330384858948 H 0.0 **** 0.06
2936 C 43.15988916522996 14.6403479103639 13.827809310206515 C 0.0 **** -0.24
2937 H 42.98330081047811 13.69848444143918 13.307495750501285 H 0.0 **** 0.06
2938 H 43.537299580018974 14.435949888603066 14.830445483640567 H 0.0 **** 0.06
2939 H 42.22590629209951 15.197406070387448 13.896733531247623 H 0.0 **** 0.06
2940 H 43.89360563825126 15.227403210964582 13.275524424743512 H 0.0 **** 0.06
2941 C 20.74967148173782 84.23407898791697 35.75761478199303 C 0.0 **** -0.24
2942 H 20.11355441921961 84.17522535270612 34.87440601520899 H 0.0 **** 0.06
2943 H 20.922290097555077 83.2315523215346 36.14823153624087 H 0.0 **** 0.06
2944 H 20.26072261160992 84.8427075033602 36.51841024335573 H 0.0 **** 0.06
2945 H 21.704101514625393 84.68790522685717 35.486781681304535 H 0.0 **** 0.06
2946 C 1.2240637252782562 56.29930012457453 4.407648394334188 C 0.0 **** -0.24
2947 H 1.1786223965075635 56.11205101579196 5.479915701262371 H 0.0 **** 0.06
2948 H 1.238456952272756 57.37448356196316 4.226748286990329 H 0.0 **** 0.06
2949 H 0.3494535582454432 55.86115579707652 3.9261257759769705 H 0.0 **** 0.06
2950 H 2.128017713469859 55.84920771823383 3.99773940174353 H 0.0 **** 0.06
2951 C 66.31694362858158 40.04024429867587 9.310981173997902 C 0.0 **** -0.24
2952 H 65.88338614663493 39.23473517286891 8.7175998513451 H 0.0 **** 0.06
2953 H 66.15805728975027 40.991475104136384 8.802206643306477 H 0.0 **** 0.06
2954 H 67.3862474309943 39.866639804218835 9.432555267551905 H 0.0 **** 0.06
2955 H 65.83888155010487 40.06734631996318 10.290590568199349 H 0.0 **** 0.06
2956 C 59.87872182619276 94.63930458911813 42.65248785971417 C 0.0 **** -0.24
2957 H 60.08054081427221 95.03310838980386 41.655969372496415 H 0.0 **** 0.06
2958 H 59.338914341313654 93.69642882982998 42.56727314916017 H 0.0 **** 0.06
2959 H 59.27518965884815 95.35531417543825 43.209851793856004 H 0.0 **** 0.06
2960 H 60.82112212978029 94.47438487759783 43.17508097513556 H 0.0 **** 0.06
2961 C 3.489925415013401 105.42485715223052 104.84084462445261 C 0.0 **** -0.24
2962 H 2.6734067078298747 105.86569494076107 105.41338080363158 H 0.0 **** 0.06
2963 H 3.081855548762105 104.76159226670899 104.07849822165946 H 0.0 **** 0.06
2964 H 4.136539498301683 104.85598281025432 105.51029641631229 H 0.0 **** 0.06
2965 H 4.067234946379244 106.21620413712449 104.36333754420315 H 0.0 **** 0.06
2966 C 62.444812511325665 106.39604262055045 11.087813302886161 C 0.0 **** -0.24
2967 H 63.3463934609544 105.92275273491774 10.700141004920624 H 0.0 **** 0.06
2968 H 62.364314018105006 106.20402824223424 12.158073038035923 H 0.0 **** 0.06
2969 H 61.57262029884498 105.98784243242793 10.577876346233154 H 0.0 **** 0.06
2970 H 62.4965424769224 107.4716866404176 10.914968211431187 H 0.0 **** 0.06
2971 C 94.52422285738658 28.992952862003044 4.526124481638362 C 0.0 **** -0.24
2972 H 93.51553973638988 28.838422247981292 4.909262891664866 H 0.0 **** 0.06
2973 H 94.49765133466866 29.73216175871743 3.7247346749206827 H 0.0 **** 0.06
2974 H 94.9148475042353 28.051544106465528 4.1396075513501955 H 0.0 **** 0.06
2975 H 95.16751039555953 29.351262963912944 5.329587849991071 H 0.0 **** 0.06
2976 C 8.527293350674825 59.88550098109036 74.65509091803517 C 0.0 **** -0.24
2977 H 7.909172087367153 59.60447349596083 73.8028919974441 H 0.0 **** 0.06
2978 H 7.990526014250804 59.672133111359756 75.57968022770478 H 0.0 **** 0.06
2979 H 8.75388977412075 60.95084270232351 74.60415456120322 H 0.0 **** 0.06
2980 H 9.456114449894756 59.315481000678034 74.63270835844426 H 0.0 **** 0.06
2981 C 34.97861941342683 18.36935773907021 46.85377806470376 C 0.0 **** -0.24
2982 H 35.81648982725247 18.137909930627217 46.195366697920264 H 0.0 **** 0.06
2983 H 34.04869539378683 18.33071635457057 46.2855240624846 H 0.0 **** 0.06
2984 H 35.10985727500341 19.368600408683392 47.26937416569439 H 0.0 **** 0.06
2985 H 34.941147767477304 17.639915624783015 47.66343880881692 H 0.0 **** 0.06
2986 C 107.74115181111665 13.431807693170796 72.02710309545353 C 0.0 **** -0.24
2987 H 107.79473457187146 13.809987545258508 71.00687900236528 H 0.0 **** 0.06
2988 H 108.5598713425436 13.849830885150507 72.61349748062389 H 0.0 **** 0.06
2989 H 107.82075276149948 12.344002082042056 72.01513952123275 H 0.0 **** 0.06
2990 H 106.7895035476239 13.720421295662408 72.47285654059726 H 0.0 **** 0.06
2991 C 30.211687783532 94.64042359090439 51.94256284861258 C 0.0 **** -0.24
2992 H 30.943979534661025 94.13817505204904 51.30952205136657 H 0.0 **** 0.06
2993 H 30.658878691945063 95.53598070139876 52.37360359579144 H 0.0 **** 0.06
2994 H 29.901530362132902 93.96775409507336 52.741884113389474 H 0.0 **** 0.06
2995 H 29.34476872883377 94.91883230022452 51.34372371474216 H 0.0 **** 0.06
2996 C 20.7677287771116 70.95950336466356 52.77438090993913 C 0.0 **** -0.24
2997 H 19.93222748345339 71.00920328566556 53.47303384725219 H 0.0 **** 0.06
2998 H 20.734065939402413 71.82158338363564 52.107194039132146 H 0.0 **** 0.06
2999 H 20.696862961640107 70.04311546074496 52.1890881685436 H 0.0 **** 0.06
3000 H 21.705824061722524 70.96575572542906 53.33009268652268 H 0.0 **** 0.06
3001 C 70.05660932891087 55.1910090756801 67.90551481439002 C 0.0 **** -0.24
3002 H 69.25494684018784 55.74117256028847 67.41422294073917 H 0.0 **** 0.06
3003 H 70.06104806292291 55.42799683229198 68.96984772318939 H 0.0 **** 0.06
3004 H 71.013321231016 55.47287452667442 67.466235209263 H 0.0 **** 0.06
3005 H 69.89760509990194 54.120672531167294 67.77190806582877 H 0.0 **** 0.06
3006 C 0.9919240156321232 59.21629683645474 71.32216655415738 C 0.0 **** -0.24
3007 H 1.1874827234059255 58.83770068424891 70.3182745244209 H 0.0 **** 0.06
3008 H 1.4823369730309732 60.181388050278365 71.44749987866385 H 0.0 **** 0.06
3009 H 1.3811886380811877 58.51231281066867 72.05737326600718 H 0.0 **** 0.06
3010 H -0.0828547461362561 59.33217021558935 71.4632423645748 H 0.0 **** 0.06
3011 C 57.18943069582678 16.512370578936384 4.987195091724374 C 0.0 **** -0.24
3012 H 57.310394320858144 16.622817624863103 3.909216574029159 H 0.0 **** 0.06
3013 H 56.54243428302855 17.305394184454883 5.362980438455651 H 0.0 **** 0.06
3014 H 58.164547589250624 16.578180260325723 5.470154239548577 H 0.0 **** 0.06
3015 H 56.741310152449344 15.54263841411057 5.204735709277998 H 0.0 **** 0.06
3016 C 62.27223289909452 12.084367113957494 4.418914487857888 C 0.0 **** -0.24
3017 H 62.174273347259145 12.945704114104913 3.757871441426264 H 0.0 **** 0.06
3018 H 62.68669711147183 11.243832414882771 3.8627542617234827 H 0.0 **** 0.06
3019 H 61.29158671434891 11.814663136021608 4.810768039639557 H 0.0 **** 0.06
3020 H 62.93630397010344 12.336688720159461 5.245780755310394 H 0.0 **** 0.06
3021 C 73.76609625664383 110.505467711883 77.343520890684 C 0.0 **** -0.24
3022 H 74.23267034526023 111.46296541081966 77.57659642912023 H 0.0 **** 0.06
3023 H 73.01290467524004 110.64829300558074 76.56751646564675 H 0.0 **** 0.06
3024 H 73.29395238593293 110.1031980703853 78.23971042359054 H 0.0 **** 0.06
3025 H 74.52570303950466 109.80865135668745 76.9889353541798 H 0.0 **** 0.06
3026 C 95.87758484015893 14.198645986963925 56.780547958440664 C 0.0 **** -0.24
3027 H 95.16326497506998 13.787484250553604 56.067183008445696 H 0.0 **** 0.06
3028 H 95.95000313214268 15.277474370385391 56.6404004043932 H 0.0 **** 0.06
3029 H 96.85417824297213 13.743327328970466 56.619661138877476 H 0.0 **** 0.06
3030 H 95.53931683740495 13.9858380556757 57.79496058102813 H 0.0 **** 0.06
3031 C 68.78405873727772 47.23963167352788 15.95927098813911 C 0.0 **** -0.24
3032 H 68.26469854048582 46.99610924757719 16.886254923854494 H 0.0 **** 0.06
3033 H 68.99788709381374 46.32258644081419 15.411327744129721 H 0.0 **** 0.06
3034 H 69.71907440682543 47.751259176729 16.191228921553034 H 0.0 **** 0.06
3035 H 68.15567849575737 47.88933358389916 15.350956079472695 H 0.0 **** 0.06
3036 C 5.266936352718659 51.08822849069458 49.971522095199504 C 0.0 **** -0.24
3037 H 5.894767646913635 51.89475419803467 49.592405285786185 H 0.0 **** 0.06
3038 H 5.244143506188479 50.27456124863771 49.24547623810733 H 0.0 **** 0.06
3039 H 4.255364887904534 51.460710541710895 50.13284066076454 H 0.0 **** 0.06
3040 H 5.674915189032163 50.72399401215489 50.91406751564196 H 0.0 **** 0.06
3041 C 105.17340695936736 18.981537441088207 29.700095476276566 C 0.0 **** -0.24
3042 H 105.10044132546315 19.552933486633265 28.7750247032576 H 0.0 **** 0.06
3043 H 104.17890477998105 18.850499663938777 30.126362874636143 H 0.0 **** 0.06
3044 H 105.80605620030869 19.51631086392473 30.408918264667392 H 0.0 **** 0.06
3045 H 105.60995601120226 18.004957056620356 29.489123660844008 H 0.0 **** 0.06
3046 C 102.51820380127685 60.10928151677146 73.24301354317234 C 0.0 **** -0.24
3047 H 101.88303801627049 59.22982062208757 73.34790557286539 H 0.0 **** 0.06
3048 H 102.4002851728871 60.74877528592003 74.11763133947076 H 0.0 **** 0.06
3049 H 102.23023804325285 60.660213343989994 72.34733599689815 H 0.0 **** 0.06
3050 H 103.55977999336758 59.797169779023335 73.15733521520588 H 0.0 **** 0.06
3051 C 47.86468271118847 112.6706662050296 13.182721599129252 C 0.0 **** -0.24
3052 H 47.73835183355716 111.92841464442964 12.394180190311204 H 0.0 **** 0.06
3053 H 46.88971549094502 113.06001812126036 13.474333229406682 H 0.0 **** 0.06
3054 H 48.48830924368333 113.48685030641269 12.816227502267566 H 0.0 **** 0.06
3055 H 48.34408860302873 112.20560222478026 14.04418946430178 H 0.0 **** 0.06
3056 C 1.1703209416091767 110.61103082246986 23.619549815538267 C 0.0 **** -0.24
3057 H 0.9884608693587609 111.2072181374098 22.72521206977082 H 0.0 **** 0.06
3058 H 0.3075048399493312 110.67809773088541 24.282702761186087 H 0.0 **** 0.06
3059 H 2.0538015713643603 110.98900336191943 24.133682196385703 H 0.0 **** 0.06
3060 H 1.3315560620238216 109.57118072155664 23.336280755102184 H 0.0 **** 0.06
3061 C 101.55658159034857 26.715698668575584 87.556327501096 C 0.0 **** -0.24
3062 H 102.39990968988496 27.405155918082272 87.58488911437377 H 0.0 **** 0.06
3063 H 101.11618741900944 26.639715485830095 88.55047684435766 H 0.0 **** 0.06
3064 H 101.9022595442909 25.732356155391074 87.23552114882403 H 0.0 **** 0.06
3065 H 100.80922922272345 27.08502055378912 86.85476202435467 H 0.0 **** 0.06
3066 C 95.5852927752774 59.78056832160912 69.59879203558927 C 0.0 **** -0.24
3067 H 95.90666833886297 60.63521293265692 69.00278719325073 H 0.0 **** 0.06
3068 H 94.66098955404331 59.377188235618156 69.18522045698583 H 0.0 **** 0.06
3069 H 95.41588664601196 60.098741516187395 70.62709147040343 H 0.0 **** 0.06
3070 H 96.35827289280607 59.01265047057279 69.5785615271738 H 0.0 **** 0.06
3071 C 98.94633049948513 11.549720492453368 12.529512657019893 C 0.0 **** -0.24
3072 H 97.8901763725465 11.292404788953746 12.449191552520404 H 0.0 **** 0.06
3073 H 99.33696473555466 11.185875323622575 13.48012877694103 H 0.0 **** 0.06
3074 H 99.06113858396884 12.631990951529598 12.478619741266954 H 0.0 **** 0.06
3075 H 99.49549845754032 11.087009954112546 11.709878673885129 H 0.0 **** 0.06
3076 C 72.81747750319948 8.549234785542154 3.2790485493186736 C 0.0 **** -0.24
3077 H 71.9744822237312 8.92112478534834 2.6959651732511816 H 0.0 **** 0.06
3078 H 73.74217087568098 8.708004629696234 2.723704758945445 H 0.0 **** 0.06
3079 H 72.68615024519914 7.484154644587861 3.469450289348856 H 0.0 **** 0.06
3080 H 72.86645596973727 9.084336179043916 4.2274097670324835 H 0.0 **** 0.06
3081 C 47.94585348576373 70.33749397717702 26.61857805323538 C 0.0 **** -0.24
3082 H 48.026606100480755 71.30363465192715 26.120572437465796 H 0.0 **** 0.06
3083 H 48.51133539818839 70.3617797942893 27.550029494538904 H 0.0 **** 0.06
3084 H 48.34675849686261 69.55943958055605 25.969064458555977 H 0.0 **** 0.06
3085 H 46.89863397144131 70.1274462356306 26.833876846394077 H 0.0 **** 0.06
3086 C 7.5888228541394795 45.62131442719934 59.79464868906663 C 0.0 **** -0.24
3087 H 6.922137487675528 44.808982269940465 60.08624867326688 H 0.0 **** 0.06
3088 H 8.394830333613612 45.22568884333599 59.177198536437515 H 0.0 **** 0.06
3089 H 8.007767409257696 46.085016973334135 60.687866363240744 H 0.0 **** 0.06
3090 H 7.028064616073351 46.36509738015498 59.22888417340931 H 0.0 **** 0.06
3091 C 101.92847869597642 2.000577378084813 47.11503654072818 C 0.0 **** -0.24
3092 H 102.44381148672647 2.672930710274329 46.42909448523543 H 0.0 **** 0.06
3093 H 102.39874607929704 1.016683931133116 47.07966994630982 H 0.0 **** 0.06
3094 H 100.88202742696302 1.9145407720336038 46.82203339114637 H 0.0 **** 0.06
3095 H 101.99143039829534 2.3972154491459463 48.128507670466966 H 0.0 **** 0.06
3096 C 44.59739737973442 80.7675826542737 19.75053449370857 C 0.0 **** -0.24
3097 H 44.73767892380158 81.07087593025136 18.712783707328732 H 0.0 **** 0.06
3098 H 45.379351201519995 81.21126404678608 20.367084938802734 H 0.0 **** 0.06
3099 H 44.65077365711517 79.68044603310761 19.82164303258403 H 0.0 **** 0.06
3100 H 43.62263022042555 81.10714317284493 20.098645031993392 H 0.0 **** 0.06
3101 C 93.16550119561956 102.53812584596744 90.12235512629721 C 0.0 **** -0.24
3102 H 93.04817655356362 101.55924546084171 89.65785379287823 H 0.0 **** 0.06
3103 H 93.12308340390646 103.3107535836736 89.3541009049382 H 0.0 **** 0.06
3104 H 94.12661379902349 102.58576860701365 90.63316042585652 H 0.0 **** 0.06
3105 H 92.36273811532544 102.69685990372932 90.84229423216692 H 0.0 **** 0.06
3106 C 41.49852636580519 23.80811689308331 46.14725303569881 C 0.0 **** -0.24
3107 H 41.20579115967952 24.75175619400983 46.60728927382104 H 0.0 **** 0.06
3108 H 40.72105068913085 23.486534245132077 45.452727525585715 H 0.0 **** 0.06
3109 H 41.630342994863526 23.052739758574262 46.921714869049964 H 0.0 **** 0.06
3110 H 42.4354870389906 23.94230735444671 45.60684670936084 H 0.0 **** 0.06
3111 C 15.160276031322446 104.38184192547106 6.758376570966632 C 0.0 **** -0.24
3112 H 16.0978868617972 104.3099369796181 7.307938120688107 H 0.0 **** 0.06
3113 H 15.189103262447535 105.25446354369637 6.104305469605563 H 0.0 **** 0.06
3114 H 14.332861825430676 104.48104658083679 7.460908102282659 H 0.0 **** 0.06
3115 H 15.021032024979363 103.48268970051913 6.1580393472546575 H 0.0 **** 0.06
3116 C 57.35565824839094 44.270326217431034 4.211837830024834 C 0.0 **** -0.24
3117 H 58.00431340658793 43.93607678383529 3.4013119101450116 H 0.0 **** 0.06
3118 H 56.648036734864476 43.480029562120706 4.4604928612105965 H 0.0 **** 0.06
3119 H 56.811262320400346 45.16102229148515 3.896639446363622 H 0.0 **** 0.06
3120 H 57.96162170619993 44.505652898122605 5.087159524067587 H 0.0 **** 0.06
3121 C 8.267716227837653 36.56658688188861 55.802780646716194 C 0.0 **** -0.24
3122 H 8.088422969562785 36.33087987844493 54.7537479828833 H 0.0 **** 0.06
3123 H 7.740779818192635 35.8485591200087 56.43167696489506 H 0.0 **** 0.06
3124 H 7.903755989895018 37.572192194093645 56.015553626245165 H 0.0 **** 0.06
3125 H 9.33649383465196 36.51659674341511 56.009458581619505 H 0.0 **** 0.06
3126 C 96.97195412971877 63.55404766043268 72.68809331225671 C 0.0 **** -0.24
3127 H 96.15551030020202 62.87984005948628 72.42928648348612 H 0.0 **** 0.06
3128 H 96.99987867504063 63.69269232112362 73.769124901774 H 0.0 **** 0.06
3129 H 96.81539224531178 64.51732587792608 72.20203171730884 H 0.0 **** 0.06
3130 H 97.91610741564841 63.126653284690484 72.35212017987644 H 0.0 **** 0.06
3131 C 106.70062899245507 102.67433731122887 22.45097542332674 C 0.0 **** -0.24
3132 H 106.50680010078764 102.15614360633222 21.511614972392326 H 0.0 **** 0.06
3133 H 106.1648740080802 102.1737371288242 23.25878577377205 H 0.0 **** 0.06
3134 H 106.35980567226925 103.70650619818795 22.373436972781278 H 0.0 **** 0.06
3135 H 107.77010772409893 102.65870022226923 22.659918214803184 H 0.0 **** 0.06
3136 C 31.371155211497978 111.47096800289864 23.223845470407866 C 0.0 **** -0.24
3137 H 30.853798751250054 112.4180396668354 23.074815698442038 H 0.0 **** 0.06
3138 H 32.21656448862072 111.4073980800793 22.537393349024352 H 0.0 **** 0.06
3139 H 30.684104028900663 110.6471701772069 23.03046966245904 H 0.0 **** 0.06
3140 H 31.731884808076757 111.41107808803217 24.25098021370533 H 0.0 **** 0.06
3141 C 50.30900049762755 81.46038068693497 100.93923103739064 C 0.0 **** -0.24
3142 H 51.09115256267944 82.20239848728369 101.0997462131487 H 0.0 **** 0.06
3143 H 49.8815826886418 81.59260446975043 99.94538031091679 H 0.0 **** 0.06
3144 H 49.52821188717371 81.58740458115182 101.69008824620596 H 0.0 **** 0.06
3145 H 50.734798511251824 80.46078391381627 101.02317566681916 H 0.0 **** 0.06
3146 C 104.92045354024708 58.450972956952505 94.26720157421624 C 0.0 **** -0.24
3147 H 105.08546327521935 59.12320277762172 95.10964877553667 H 0.0 **** 0.06
3148 H 105.32479916927733 57.46644321851825 94.5030451959882 H 0.0 **** 0.06
3149 H 105.41803838421532 58.84743701093155 93.38302179696305 H 0.0 **** 0.06
3150 H 103.8500768814171 58.36708664871521 94.07414615829143 H 0.0 **** 0.06
3151 C 45.316496150514695 68.84431248656784 62.565083269521445 C 0.0 **** -0.24
3152 H 44.430070070122724 69.05098226329577 63.1638158737774 H 0.0 **** 0.06
3153 H 45.05778961592108 68.15792292790297 61.75811254009299 H 0.0 **** 0.06
3154 H 46.08381170252812 68.39298524340126 63.194019632619366 H 0.0 **** 0.06
3155 H 45.693768081045334 69.77596070631154 62.143226796268856 H 0.0 **** 0.06
3156 C 111.6119960635265 101.16140699741965 78.89633150697534 C 0.0 **** -0.24
3157 H 112.44378628820206 100.49161195943981 78.67468289883936 H 0.0 **** 0.06
3158 H 111.83980583215606 102.1601222284275 78.52225256840839 H 0.0 **** 0.06
3159 H 111.45811652416731 101.20361692212651 79.97488972791791 H 0.0 **** 0.06
3160 H 110.70889029643573 100.78903869270306 78.41429507209543 H 0.0 **** 0.06
3161 C 11.998757026865206 51.521695734496106 3.476413419405768 C 0.0 **** -0.24
3162 H 11.885011830831928 51.279211104214305 2.4195668572868474 H 0.0 **** 0.06
3163 H 11.029521696941345 51.45681781052792 3.969950721972909 H 0.0 **** 0.06
3164 H 12.389660825352735 52.534927254951114 3.5761459068002495 H 0.0 **** 0.06
3165 H 12.69140528996681 50.81782572758611 3.9378273186422064 H 0.0 **** 0.06
3166 C 104.29548215456947 88.45063372571747 48.67226023030348 C 0.0 **** -0.24
3167 H 103.50054319478912 89.04909741204551 49.117292429389096 H 0.0 **** 0.06
3168 H 104.20051504700481 88.46933106081235 47.586180999700915 H 0.0 **** 0.06
3169 H 104.21632799333045 87.42240971322303 49.026188791966376 H 0.0 **** 0.06
3170 H 105.26347386011429 88.85987255626696 48.96010738426027 H 0.0 **** 0.06
3171 C 69.48225026421582 86.38162571868952 51.66312838605438 C 0.0 **** -0.24
3172 H 70.17132036427395 86.60441055953984 50.84816413481201 H 0.0 **** 0.06
3173 H 68.46175557915117 86.36225111316313 51.2816463191659 H 0.0 **** 0.06
3174 H 69.56979788733753 87.15032104031417 52.43154061762459 H 0.0 **** 0.06
3175 H 69.72888700370973 85.41013807557303 52.09111489285427 H 0.0 **** 0.06
3176 C 65.32370232491445 98.34731826700968 81.42916273356045 C 0.0 **** -0.24
3177 H 65.73740027817178 99.29469702862829 81.77379998930292 H 0.0 **** 0.06
3178 H 64.2366169069461 98.41426663299114 81.3999815322409 H 0.0 **** 0.06
3179 H 65.62178536753811 97.55103696079775 82.11176218690963 H 0.0 **** 0.06
3180 H 65.70230961570462 98.12901503888457 80.42968401199195 H 0.0 **** 0.06
3181 C 86.94404604074049 83.53450093151838 21.936798934850742 C 0.0 **** -0.24
3182 H 87.3370016039429 83.46083921377402 22.95074235344822 H 0.0 **** 0.06
3183 H 86.67913383633919 82.53967899992762 21.57687351003935 H 0.0 **** 0.06
3184 H 87.70187723244698 83.96708694422745 21.284168431137772 H 0.0 **** 0.06
3185 H 86.05866777470516 84.17055238516531 21.93626590295119 H 0.0 **** 0.06
3186 C 58.33883514808445 21.767489335738446 3.334067303014905 C 0.0 **** -0.24
3187 H 57.58856468660123 21.145951301525315 3.8238694611879964 H 0.0 **** 0.06
3188 H 59.27195719401586 21.210889704071235 3.2485952525543382 H 0.0 **** 0.06
3189 H 58.50511962263615 22.667660255769135 3.925680496008084 H 0.0 **** 0.06
3190 H 57.98732556820779 22.045327368760695 2.3410137472433235 H 0.0 **** 0.06
3191 C 2.797673202116661 79.97519311676001 55.43914185800935 C 0.0 **** -0.24
3192 H 2.63268971741628 80.39340806800308 56.43233323914154 H 0.0 **** 0.06
3193 H 3.8196683945417167 80.18417178118494 55.12299927371447 H 0.0 **** 0.06
3194 H 2.0990977023519477 80.4274814316602 54.73442914856048 H 0.0 **** 0.06
3195 H 2.6381898208607915 78.89758207149762 55.467440987024816 H 0.0 **** 0.06
3196 C 0.5621141132670573 78.56314285872111 38.0182662960558 C 0.0 **** -0.24
3197 H 0.4301390551701161 77.50002201452833 37.81671219974437 H 0.0 **** 0.06
3198 H -0.021306784492367115 78.84233591730114 38.89607306609665 H 0.0 **** 0.06
3199 H 0.2232074839781717 79.14100714967188 37.15811074107559 H 0.0 **** 0.06
3200 H 1.6158378752000715 78.7704941084273 38.20208693326613 H 0.0 **** 0.06
3201 C 72.08680698718356 106.65386027036985 103.1185215755794 C 0.0 **** -0.24
3202 H 73.13041846399824 106.90814073106017 103.30421468723037 H 0.0 **** 0.06
3203 H 71.98693473255162 106.2364509411168 102.11626242255886 H 0.0 **** 0.06
3204 H 71.47368992344855 107.55173218018774 103.20203171721045 H 0.0 **** 0.06
3205 H 71.75580601245818 105.91939496918764 103.8529114438806 H 0.0 **** 0.06
3206 C 66.47232607232928 81.54685669032489 83.85967876490722 C 0.0 **** -0.24
3207 H 65.72604577421063 81.55692765847147 83.06487456346039 H 0.0 **** 0.06
3208 H 66.87658169017186 80.53910837409825 83.96370862915387 H 0.0 **** 0.06
3209 H 66.00881601790397 81.85144596102049 84.79729762049098 H 0.0 **** 0.06
3210 H 67.27713758403422 82.23838285149935 83.60966594987397 H 0.0 **** 0.06
3211 C 40.44348286050979 65.96877442865889 73.75075015856117 C 0.0 **** -0.24
3212 H 40.73785967561466 65.14946082218484 74.4072133628429 H 0.0 **** 0.06
3213 H 40.99197062825087 66.86986504018637 74.02612317516244 H 0.0 **** 0.06
3214 H 39.37308029515219 66.14858105689314 73.8543665443159 H 0.0 **** 0.06
3215 H 40.67018984748765 65.70654252914494 72.71750878182192 H 0.0 **** 0.06
3216 C 95.22389046826095 17.297533533214448 49.80214788890325 C 0.0 **** -0.24
3217 H 96.02110035361383 16.60617513656024 49.526780086883605 H 0.0 **** 0.06
3218 H 94.31236107240144 17.032225596895387 49.2662866501467 H 0.0 **** 0.06
3219 H 95.5171782140481 18.313518568099425 49.54062348523476 H 0.0 **** 0.06
3220 H 95.04514634127423 17.235406594560743 50.87593288188634 H 0.0 **** 0.06
3221 C 30.04964076258426 98.70686864437795 81.65484707833053 C 0.0 **** -0.24
3222 H 30.150500973389057 99.6323786248899 81.0875024626119 H 0.0 **** 0.06
3223 H 30.92001950229303 98.0753092843891 81.47845268457726 H 0.0 **** 0.06
3224 H 29.147938058283444 98.18256981574913 81.3366766480423 H 0.0 **** 0.06
3225 H 29.97867705692431 98.93991383463808 82.71758670723929 H 0.0 **** 0.06
3226 C 104.00264243260074 110.07277843580938 76.56723927656742 C 0.0 **** -0.24
3227 H 103.0348762946991 110.53838848899395 76.75362964802412 H 0.0 **** 0.06
3228 H 103.85299776112356 109.09496414970508 76.10867835038044 H 0.0 **** 0.06
3229 H 104.53639488589988 109.9552730395105 77.5100230048194 H 0.0 **** 0.06
3230 H 104.58575925731884 110.70400597126213 75.89544164901878 H 0.0 **** 0.06
3231 C 101.28808737089872 24.9931264485473 31.884731545569593 C 0.0 **** -0.24
3232 H 101.61699833483829 24.96121669225367 30.845776895582354 H 0.0 **** 0.06
3233 H 100.20143183623958 25.07167727364869 31.918464438155468 H 0.0 **** 0.06
3234 H 101.73115456930765 25.85748765704173 32.37990482666134 H 0.0 **** 0.06
3235 H 101.60339176715792 24.081759776851655 32.393207054026895 H 0.0 **** 0.06
3236 C 34.40428938186024 87.48300409046271 93.26382631718991 C 0.0 **** -0.24
3237 H 33.506613871796134 86.95973481348659 92.93534907353535 H 0.0 **** 0.06
3238 H 34.83243624326774 88.03092028526564 92.42470506708898 H 0.0 **** 0.06
3239 H 35.131313376626615 86.75904081741515 93.63413669678238 H 0.0 **** 0.06
3240 H 34.14711562361895 88.1803899605859 94.06152678487143 H 0.0 **** 0.06
3241 C 48.274181313099774 38.20963913699552 66.66938787428117 C 0.0 **** -0.24
3242 H 47.602663794903776 38.79604694604703 66.04171556128068 H 0.0 **** 0.06
3243 H 48.16152671520095 38.519569188499645 67.70879383526736 H 0.0 **** 0.06
3244 H 49.30327629497265 38.37200730670668 66.35134951606594 H 0.0 **** 0.06
3245 H 48.02740501018587 37.1518421773265 66.57701118292323 H 0.0 **** 0.06
3246 C 81.24397385366785 5.587379648176011 75.5320213734278 C 0.0 **** -0.24
3247 H 80.90020500564046 4.675695865842499 76.0211001756789 H 0.0 **** 0.06
3248 H 81.84926997108295 5.328726056108053 74.66439057413945 H 0.0 **** 0.06
3249 H 81.84244205851525 6.170208310105863 76.2329857169047 H 0.0 **** 0.06
3250 H 80.38250628158235 6.174750632265614 75.2137096411569 H 0.0 **** 0.06
3251 C 24.0801698662546 31.35184726800805 4.143145716635843 C 0.0 **** -0.24
3252 H 23.317334699547626 30.938130113931244 3.4834048372864004 H 0.0 **** 0.06
3253 H 24.83040933750996 30.588901774654587 4.35300840945996 H 0.0 **** 0.06
3254 H 23.61687349338112 31.672800733340246 5.076492797176115 H 0.0 **** 0.06
3255 H 24.554501390013897 32.205679267679876 3.659879867293114 H 0.0 **** 0.06
3256 C 61.332534817969645 98.12121840047317 95.61036005162225 C 0.0 **** -0.24
3257 H 61.146493483945164 99.19332790420637 95.55316583600447 H 0.0 **** 0.06
3258 H 60.89636027858475 97.72629405348994 96.52791327727164 H 0.0 **** 0.06
3259 H 62.407923755658345 97.93904750398144 95.61129523053998 H 0.0 **** 0.06
3260 H 60.88138359019837 97.62711602552929 94.75010556582777 H 0.0 **** 0.06
3261 C 37.410812052628785 13.07243854365619 65.54063832071537 C 0.0 **** -0.24
3262 H 37.353320401261584 12.527589467389063 66.48283711745566 H 0.0 **** 0.06
3263 H 36.454098370853075 13.00250939299687 65.02167848165826 H 0.0 **** 0.06
3264 H 38.19396178867996 12.639293321786027 64.9183432923526 H 0.0 **** 0.06
3265 H 37.64202772959001 14.118772189702298 65.73902575710039 H 0.0 **** 0.06
3266 C 87.13984015085896 109.76331568399124 76.47498694113617 C 0.0 **** -0.24
3267 H 86.77887954774985 109.61700538477507 77.49296833704003 H 0.0 **** 0.06
3268 H 86.5742054936295 109.12603938897058 75.79481506448056 H 0.0 **** 0.06
3269 H 88.1971152605364 109.50086248865239 76.42411336877916 H 0.0 **** 0.06
3270 H 87.00991346257001 110.80669300684929 76.18921053291271 H 0.0 **** 0.06
3271 C 28.688766698806184 10.301342641943258 94.9208637808465 C 0.0 **** -0.24
3272 H 28.492714727145206 11.342466324259377 95.17693698032247 H 0.0 **** 0.06
3273 H 28.045864544891764 9.65310512402396 95.5160908930668 H 0.0 **** 0.06
3274 H 29.733435964382856 10.067184518639447 95.12720942497356 H 0.0 **** 0.06
3275 H 28.48364610769341 10.143626326761215 93.86159821112017 H 0.0 **** 0.06
3276 C 54.45706145240275 38.9095116982983 13.6458951082831 C 0.0 **** -0.24
3277 H 53.90045050024392 38.72614862166577 14.565033089365912 H 0.0 **** 0.06
3278 H 55.52597993409243 38.85634838261487 13.851007994295898 H 0.0 **** 0.06
3279 H 54.20805494999778 39.899857316986356 13.262458276460066 H 0.0 **** 0.06
3280 H 54.190987271619555 38.15585311351808 12.90454790618871 H 0.0 **** 0.06
3281 C 100.46208910162127 103.29856639721379 96.85774836728837 C 0.0 **** -0.24
3282 H 99.48750594610144 103.69090581476058 97.14759457532995 H 0.0 **** 0.06
3283 H 100.4405553536225 102.2098682514414 96.89230220635974 H 0.0 **** 0.06
3284 H 101.22271829904446 103.67037862347163 97.54470347244705 H 0.0 **** 0.06
3285 H 100.69801401615709 103.6263300616522 95.84453323960028 H 0.0 **** 0.06
3286 C 13.995764294727906 64.32456493680726 79.60439637976901 C 0.0 **** -0.24
3287 H 14.888504373255046 64.15849317188528 80.20693408250293 H 0.0 **** 0.06
3288 H 13.203333093344611 64.73033010980998 80.23350354094066 H 0.0 **** 0.06
3289 H 13.668888700399691 63.37861106145326 79.17258160074061 H 0.0 **** 0.06
3290 H 14.22243019866977 65.02913504838264 78.80493102735812 H 0.0 **** 0.06
3291 C 59.57994125394947 104.99284856979784 54.46308713127769 C 0.0 **** -0.24
3292 H 58.71669772383177 105.66007519084366 54.46906750195532 H 0.0 **** 0.06
3293 H 59.39215073930961 104.15247369909525 55.13230253714556 H 0.0 **** 0.06
3294 H 60.46153910931969 105.53740404272264 54.80090799402228 H 0.0 **** 0.06
3295 H 59.746430350299704 104.62254294454306 53.45209581136484 H 0.0 **** 0.06
3296 C 58.209004041005414 73.91414198991981 52.04476800497895 C 0.0 **** -0.24
3297 H 57.27021772949507 73.50647739108575 52.41800673955041 H 0.0 **** 0.06
3298 H 58.876488566787316 73.09714981688225 51.77180362309582 H 0.0 **** 0.06
3299 H 58.67597846709651 74.5214273167496 52.820291581636326 H 0.0 **** 0.06
3300 H 58.01362276922396 74.53240747175411 51.168629694542034 H 0.0 **** 0.06
3301 C 105.0750197005332 13.471075223904663 48.076569088517886 C 0.0 **** -0.24
3302 H 104.0175124413795 13.228375916423346 48.17666795970638 H 0.0 **** 0.06
3303 H 105.23847487197423 14.508775841048276 48.36655046546372 H 0.0 **** 0.06
3304 H 105.38363161246252 13.32928341029384 47.04049467107899 H 0.0 **** 0.06
3305 H 105.66008865354664 12.815664333655263 48.72243542645282 H 0.0 **** 0.06
3306 C 67.94189159278883 62.6284352704192 61.098307079729295 C 0.0 **** -0.24
3307 H 68.09555234206718 62.748809870759175 62.171105182910395 H 0.0 **** 0.06
3308 H 68.62161807595069 61.86677757332649 60.717453040653794 H 0.0 **** 0.06
3309 H 68.13677307470397 63.575259707545115 60.59557252588428 H 0.0 **** 0.06
3310 H 66.91234295919017 62.32355702171566 60.910807072258024 H 0.0 **** 0.06
3311 C 90.35274759102631 69.83099502060134 59.043627957157206 C 0.0 **** -0.24
3312 H 90.17705255299043 70.55686989002757 59.8379517903007 H 0.0 **** 0.06
3313 H 91.4255529445351 69.72468086161072 58.87976393608357 H 0.0 **** 0.06
3314 H 89.87682807856933 70.17688793616404 58.12553256367698 H 0.0 **** 0.06
3315 H 89.93080593125524 68.8688807986471 59.3317976503972 H 0.0 **** 0.06
3316 C 111.44006082267217 88.01393529171813 17.44471096581479 C 0.0 **** -0.24
3317 H 111.34007166389141 89.09851196996937 17.415352258031906 H 0.0 **** 0.06
3318 H 110.4674084752112 87.56477985965685 17.643004037870618 H 0.0 **** 0.06
3319 H 112.13793202683493 87.73468634357812 18.23394869020548 H 0.0 **** 0.06
3320 H 111.81556057218886 87.65836087512156 16.48451138416202 H 0.0 **** 0.06
3321 C 98.47511006867677 72.02767410286316 40.97653711734546 C 0.0 **** -0.24
3322 H 98.67868269196325 72.60091191475468 41.88079369944202 H 0.0 **** 0.06
3323 H 97.85682962663682 72.61955070446689 40.30140617486225 H 0.0 **** 0.06
3324 H 97.9502300605482 71.1092252970831 41.23917975236034 H 0.0 **** 0.06
3325 H 99.416400751592 71.7797552839248 40.48404081347334 H 0.0 **** 0.06
3326 C 23.267469702600124 77.97674844669908 54.93937747390942 C 0.0 **** -0.24
3327 H 23.096335529081443 78.37266626014542 55.94065845228211 H 0.0 **** 0.06
3328 H 23.80587630992568 78.71504168967391 54.343728335504444 H 0.0 **** 0.06
3329 H 22.309806023384454 77.75780178854362 54.46645669551806 H 0.0 **** 0.06
3330 H 23.857803971466524 77.06246337842666 55.00647218782222 H 0.0 **** 0.06
3331 C 68.94334226198154 1.0474134124064989 3.524697031751762 C 0.0 **** -0.24
3332 H 68.76148001208404 2.035859705682597 3.9459159823444256 H 0.0 **** 0.06
3333 H 68.03015463041726 0.4550017671983255 3.579187091040753 H 0.0 **** 0.06
3334 H 69.73273710839257 0.5515165056111471 4.089883236613829 H 0.0 **** 0.06
3335 H 69.25002188051434 1.1474687083337045 2.482846265452867 H 0.0 **** 0.06
3336 C 27.61641192653002 48.83249750292911 109.14086726350016 C 0.0 **** -0.24
3337 H 27.26256061780282 48.56636628339257 110.136954017741 H 0.0 **** 0.06
3338 H 26.890193817445834 49.48798046652291 108.66128236735221 H 0.0 **** 0.06
3339 H 27.738470097834522 47.92689327738012 108.54624788372249 H 0.0 **** 0.06
3340 H 28.573944462384134 49.34695011150733 109.22133676395168 H 0.0 **** 0.06
3341 C 99.05462515790018 89.29407364196703 61.26680728795003 C 0.0 **** -0.24
3342 H 98.39142724592747 89.03516747661823 62.09260178804632 H 0.0 **** 0.06
3343 H 99.64273579232633 88.41974381091183 60.9861550582153 H 0.0 **** 0.06
3344 H 99.72324135728263 90.09763308221184 61.57712655508945 H 0.0 **** 0.06
3345 H 98.46212955189327 89.62308554983028 60.4142596942161 H 0.0 **** 0.06
3346 C 28.042796885418596 30.206241377237234 96.70489644222545 C 0.0 **** -0.24
3347 H 28.762992446729783 29.816692786849103 97.42403106766585 H 0.0 **** 0.06
3348 H 27.22492413443956 29.49484550356351 96.58832246808578 H 0.0 **** 0.06
3349 H 28.535058474576374 30.355657547142528 95.74389398141818 H 0.0 **** 0.06
3350 H 27.649648590211683 31.15692409802915 97.06381024785838 H 0.0 **** 0.06
3351 C 27.95138139199757 49.62598967833327 104.71791762293722 C 0.0 **** -0.24
3352 H 27.50756022513093 49.03984999277199 105.52274085848305 H 0.0 **** 0.06
3353 H 27.334916353381175 49.537771376917846 103.82312502252844 H 0.0 **** 0.06
3354 H 28.953858382590653 49.254076262634186 104.50763769062516 H 0.0 **** 0.06
3355 H 28.00784736014785 50.67190452870736 105.01842897373146 H 0.0 **** 0.06
3356 C 39.15043920115022 64.44913986582108 16.497127240427403 C 0.0 **** -0.24
3357 H 39.424594005694985 65.35547581591538 15.957905916105233 H 0.0 **** 0.06
3358 H 38.15285715669157 64.56583534005694 16.920441088248367 H 0.0 **** 0.06
3359 H 39.86749306183566 64.27191487579898 17.29814496966128 H 0.0 **** 0.06
3360 H 39.15658204055313 63.60203529084848 15.810893665668118 H 0.0 **** 0.06
3361 C 44.06342676052469 47.20389654488764 14.17327621391675 C 0.0 **** -0.24
3362 H 43.779297036972025 47.67988933028221 13.234599711746085 H 0.0 **** 0.06
3363 H 43.96965310044885 46.12264494033951 14.074671798443376 H 0.0 **** 0.06
3364 H 43.40946328141365 47.55500877405882 14.970597528649591 H 0.0 **** 0.06
3365 H 45.09595186144736 47.46018125109191 14.41078718343826 H 0.0 **** 0.06
3366 C 0.9686280878468949 60.26230947891372 42.544582081412386 C 0.0 **** -0.24
3367 H 1.1649345299819345 59.33958374579038 41.99872643986373 H 0.0 **** 0.06
3368 H 1.0801229051649557 60.08199918692702 43.6143860676375 H 0.0 **** 0.06
3369 H -0.04642852974834 60.59838436826095 42.33615213241012 H 0.0 **** 0.06
3370 H 1.677525580190519 61.02872747607313 42.22897113363467 H 0.0 **** 0.06
3371 C 30.080125130251844 8.618686199649176 18.291592469987307 C 0.0 **** -0.24
3372 H 29.42452475615802 8.036500235398648 17.644277227368605 H 0.0 **** 0.06
3373 H 31.059840439139506 8.715728337399185 17.823309273589672 H 0.0 **** 0.06
3374 H 30.185107595213267 8.114173136699264 19.251945855883662 H 0.0 **** 0.06
3375 H 29.652070319073843 9.609294504023808 18.446926585710543 H 0.0 **** 0.06
3376 C 99.7340516156512 33.95565226045065 13.016048531062552 C 0.0 **** -0.24
3377 H 99.99716312318202 35.00556333678904 12.886965372541539 H 0.0 **** 0.06
3378 H 98.99112203026388 33.67302429296467 12.271279867551868 H 0.0 **** 0.06
3379 H 99.32411562969625 33.80427796942263 14.014877710938748 H 0.0 **** 0.06
3380 H 100.62566211895543 33.340558181620224 12.892014633021176 H 0.0 **** 0.06
3381 C 1.2006979084861484 74.7432003138334 78.23228438221241 C 0.0 **** -0.24
3382 H 0.6985932083874218 74.74268000526314 79.19968242930233 H 0.0 **** 0.06
3383 H 2.0086524615744565 74.01099101357272 78.24210387070389 H 0.0 **** 0.06
3384 H 1.611719264469997 75.73446319523347 78.03623377425632 H 0.0 **** 0.06
3385 H 0.4859369873668413 74.4851402939712 77.45168578606169 H 0.0 **** 0.06
3386 C 71.07791918109643 19.66551158493894 111.65768655733926 C 0.0 **** -0.24
3387 H 71.32067366210319 20.725873413594385 111.5823440501879 H 0.0 **** 0.06
3388 H 70.10140302477802 19.48339800856901 111.20867737484075 H 0.0 **** 0.06
3389 H 71.05539865739388 19.371598780577756 112.70795156382695 H 0.0 **** 0.06
3390 H 71.83449919737362 19.08240201848396 111.13361953493072 H 0.0 **** 0.06
3391 C 1.2696752423560156 41.666891933652465 59.49890567532214 C 0.0 **** -0.24
3392 H 1.9642262269531443 41.48668719027245 60.319910922919256 H 0.0 **** 0.06
3393 H 1.8084896073046366 42.09876476539108 58.65536175590346 H 0.0 **** 0.06
3394 H 0.4924717358399562 42.35697441269923 59.826822209606966 H 0.0 **** 0.06
3395 H 0.8138640721425077 40.723643309953076 59.19590127229713 H 0.0 **** 0.06
3396 C 44.03771969236658 99.82021878434591 101.969470424701 C 0.0 **** -0.24
3397 H 45.05929053003342 100.15257317596067 102.14956451352293 H 0.0 **** 0.06
3398 H 43.8516096431963 99.78237265203893 100.89614516681132 H 0.0 **** 0.06
3399 H 43.34054778895285 100.51731849007385 102.4351760947107 H 0.0 **** 0.06
3400 H 43.89858664770833 98.82765151320984 102.3976019269474 H 0.0 **** 0.06
3401 C 75.59468862849661 102.01287357491395 39.12338484870465 C 0.0 **** -0.24
3402 H 75.85717189540694 102.94386510304679 39.626671791083666 H 0.0 **** 0.06
3403 H 75.99900791675915 102.02075838577323 38.11158393656973 H 0.0 **** 0.06
3404 H 74.5098449760321 101.91709442795838 39.08170779199227 H 0.0 **** 0.06
3405 H 76.01333064363033 101.17157487853419 39.675900702399936 H 0.0 **** 0.06
3406 C 22.942611527515567 79.24841046385853 67.79909905095789 C 0.0 **** -0.24
3407 H 23.50812374963928 79.5700813073698 68.6732798954049 H 0.0 **** 0.06
3408 H 23.56079106117126 78.58732102023967 67.19091794614295 H 0.0 **** 0.06
3409 H 22.653691015626208 80.11978680453291 67.21224937070502 H 0.0 **** 0.06
3410 H 22.048615007955902 78.71470601349677 68.12226185076571 H 0.0 **** 0.06
3411 C 15.984577733338824 103.90847374078595 112.30213318194461 C 0.0 **** -0.24
3412 H 15.133583940659861 104.5140893623622 111.98947408924226 H 0.0 **** 0.06
3413 H 16.904556392215056 104.34736882801462 111.91390534867239 H 0.0 **** 0.06
3414 H 15.872618618899779 102.89593916208912 111.91240589135703 H 0.0 **** 0.06
3415 H 16.027799843677286 103.87607008113855 113.39056655773032 H 0.0 **** 0.06
3416 C 102.39078378028046 55.45293504205813 100.27646641907089 C 0.0 **** -0.24
3417 H 103.32230607622719 55.49842589831542 100.83944608753251 H 0.0 **** 0.06
3418 H 101.62551646475808 54.96219195004454 100.87850843534636 H 0.0 **** 0.06
3419 H 102.54827045145629 54.88725103400816 99.3580063185326 H 0.0 **** 0.06
3420 H 102.0656361189476 56.46384902615142 100.02889349353089 H 0.0 **** 0.06
3421 C 67.75000075070025 27.7124503257412 14.617534919697224 C 0.0 **** -0.24
3422 H 68.00735115162266 26.666287504367432 14.452236683946737 H 0.0 **** 0.06
3423 H 67.98615883601505 28.289626442235374 13.722961535772345 H 0.0 **** 0.06
3424 H 68.32129367357618 28.09812940607435 15.460966803223073 H 0.0 **** 0.06
3425 H 66.68391494885446 27.794827902703076 14.832107656344807 H 0.0 **** 0.06
3426 C 48.67638663650831 52.47927126053469 79.53232392071959 C 0.0 **** -0.24
3427 H 47.62699147885448 52.57636145655182 79.80885173333661 H 0.0 **** 0.06
3428 H 48.76995016821638 52.50276201723972 78.44611100428904 H 0.0 **** 0.06
3429 H 49.06627103312658 51.53509834838035 79.91034106401094 H 0.0 **** 0.06
3430 H 49.24318326304743 53.30490023425864 79.96363218585725 H 0.0 **** 0.06
3431 C 32.60184288991993 84.56128344502918 34.067260714215195 C 0.0 **** -0.24
3432 H 33.26443004889476 83.73075577470789 33.8242783685308 H 0.0 **** 0.06
3433 H 33.18933345106559 85.47263851785155 34.181020077848956 H 0.0 **** 0.06
3434 H 32.07864323817285 84.34743385147635 34.99941514416341 H 0.0 **** 0.06
3435 H 31.875345362015274 84.69441647616648 33.26524739493098 H 0.0 **** 0.06
3436 C 8.086298289424732 75.34421036754219 80.59561251661128 C 0.0 **** -0.24
3437 H 7.339107212058266 75.84044548124635 81.216228892987 H 0.0 **** 0.06
3438 H 9.042719668391669 75.85697532066644 80.69960607442667 H 0.0 **** 0.06
3439 H 7.769381073239202 75.37241931990437 79.55356066272981 H 0.0 **** 0.06
3440 H 8.192398149137716 74.30743446768818 80.9148693756444 H 0.0 **** 0.06
3441 C 101.72695008566382 98.2492285378899 54.8470102604667 C 0.0 **** -0.24
3442 H 101.38166241651129 97.36052930299147 55.37433409564525 H 0.0 **** 0.06
3443 H 100.99396653184641 99.04747404284291 54.9619084257867 H 0.0 **** 0.06
3444 H 101.8494680261038 98.01813366437915 53.78831296246008 H 0.0 **** 0.06
3445 H 102.682583650158 98.5699381217739 55.26078700882047 H 0.0 **** 0.06
3446 C 54.87564683008997 51.00277681764703 29.635268978745046 C 0.0 **** -0.24
3447 H 54.43169691187129 50.03137937359611 29.416209856786736 H 0.0 **** 0.06
3448 H 54.09779045358013 51.691939802240256 29.963913502264006 H 0.0 **** 0.06
3449 H 55.35361472434856 51.394502281049256 28.737354035128078 H 0.0 **** 0.06
3450 H 55.619959671026955 50.89198619231928 30.423305256499077 H 0.0 **** 0.06
3451 C 18.46397841485191 3.1555432422144207 39.29172923152174 C 0.0 **** -0.24
3452 H 19.065795060287897 2.6086931783149936 38.56565544731378 H 0.0 **** 0.06
3453 H 18.983507352524754 4.070108917403104 39.577894753032396 H 0.0 **** 0.06
3454 H 18.30932195563574 2.5341698879585834 40.17452875303591 H 0.0 **** 0.06
3455 H 17.500245992363006 3.4058218775388838 38.85019473218002 H 0.0 **** 0.06
3456 C 93.92776340033532 85.51629011839697 20.04639720690517 C 0.0 **** -0.24
3457 H 94.95416683892742 85.18897521767397 20.21231384378757 H 0.0 **** 0.06
3458 H 93.93122961530685 86.45363739659973 19.489235193219628 H 0.0 **** 0.06
3459 H 93.43478511871925 85.66618652777447 21.00691262536526 H 0.0 **** 0.06
3460 H 93.39215028501516 84.7569095499523 19.47687098169345 H 0.0 **** 0.06
3461 C 67.15973515792894 79.85673035805738 62.66459160761869 C 0.0 **** -0.24
3462 H 67.22333319774958 80.4370537402418 61.74379006290016 H 0.0 **** 0.06
3463 H 67.74301652001373 78.94175575619013 62.55840897015375 H 0.0 **** 0.06
3464 H 66.11870256637792 79.60302274699146 62.86265204818446 H 0.0 **** 0.06
3465 H 67.55406600260562 80.44571369329174 63.49275476422423 H 0.0 **** 0.06
3466 C 30.30134468749023 72.29855065198507 55.1417029040599 C 0.0 **** -0.24
3467 H 30.3532274651418 73.3641290302449 55.363899334841605 H 0.0 **** 0.06
3468 H 30.78380642753973 71.73771409547226 55.94284301314798 H 0.0 **** 0.06
3469 H 30.81118692118784 72.09823386347247 54.19921126744807 H 0.0 **** 0.06
3470 H 29.257926946995667 71.9939101177024 55.06145986312122 H 0.0 **** 0.06
3471 C 108.87457982177634 59.598400825992975 103.32255982931892 C 0.0 **** -0.24
3472 H 108.20704697681187 59.157463157356766 104.06222408273106 H 0.0 **** 0.06
3473 H 109.07372639877218 58.87197317979972 102.53369799494476 H 0.0 **** 0.06
3474 H 109.81172896847633 59.88205716456056 103.80141778647825 H 0.0 **** 0.06
3475 H 108.40492023433224 60.48280185308624 102.89072751401741 H 0.0 **** 0.06
3476 C 32.4088089283282 23.92983532134491 25.823652375610294 C 0.0 **** -0.24
3477 H 33.29240593423651 23.303752443732378 25.9519372630877 H 0.0 **** 0.06
3478 H 32.439859579212964 24.750982029129318 26.540324807305012 H 0.0 **** 0.06
3479 H 31.51331292918843 23.331920727602665 25.99432009010178 H 0.0 **** 0.06
3480 H 32.39171727170498 24.330381361669822 24.810756006605317 H 0.0 **** 0.06
3481 C 6.803163982081305 15.23217865225051 77.59169164442409 C 0.0 **** -0.24
3482 H 6.45734089475075 15.881985128568175 76.78796824118851 H 0.0 **** 0.06
3483 H 5.946312901730151 14.74953551589499 78.0623457105716 H 0.0 **** 0.06
3484 H 7.34080122396864 15.824215514720464 78.33246080586414 H 0.0 **** 0.06
3485 H 7.469419999031622 14.472202672225379 77.18201385995559 H 0.0 **** 0.06
3486 C 66.32236981871341 1.198782474501428 110.27862714827154 C 0.0 **** -0.24
3487 H 65.97554199605892 0.6036578256008625 109.43444858507343 H 0.0 **** 0.06
3488 H 67.30754145714891 1.6073337413824333 110.05455557221791 H 0.0 **** 0.06
3489 H 66.38288620755188 0.569040598181175 111.16619479106777 H 0.0 **** 0.06
3490 H 65.62233017714729 2.0144664137673374 110.45885086573566 H 0.0 **** 0.06
3491 C 92.17782151542878 100.98897015661424 1.8582529945026494 C 0.0 **** -0.24
3492 H 91.85067117816357 100.62462745209075 0.8851156123352268 H 0.0 **** 0.06
3493 H 92.88906087087045 101.80381501396744 1.7200941226594892 H 0.0 **** 0.06
3494 H 92.65571872700545 100.17836163892866 2.4078059406661794 H 0.0 **** 0.06
3495 H 91.31573190528184 101.35108682637491 2.419022510635415 H 0.0 **** 0.06
3496 C 65.98476930550612 87.38288304564827 47.7332241344385 C 0.0 **** -0.24
3497 H 65.73972234242592 87.53814043100422 46.682268116528064 H 0.0 **** 0.06
3498 H 65.75809689125481 86.35276608891613 48.009967912743264 H 0.0 **** 0.06
3499 H 65.39491919744773 88.06340443686966 48.348014282937044 H 0.0 **** 0.06
3500 H 67.04572610451942 87.5767873297944 47.89198561493379 H 0.0 **** 0.06
3501 C 111.62649964921914 4.110102606179055 83.33100010349574 C 0.0 **** -0.24
3502 H 110.78340533006971 3.451048246383266 83.12508828060757 H 0.0 **** 0.06
3503 H 112.49695392349051 3.512095551410823 83.60275986566464 H 0.0 **** 0.06
3504 H 111.3727076232162 4.777816111994014 84.1549089131903 H 0.0 **** 0.06
3505 H 111.85302106305676 4.698540801894552 82.44232249931153 H 0.0 **** 0.06
3506 C 29.07465198115881 42.809146160489206 0.9370791372661813 C 0.0 **** -0.24
3507 H 29.374670951770682 43.70604267740501 1.479325082852455 H 0.0 **** 0.06
3508 H 28.96995583768259 43.04304654319864 -0.12185743149576922 H 0.0 **** 0.06
3509 H 28.12085089015838 42.45175724942118 1.3268356084691675 H 0.0 **** 0.06
3510 H 29.832130418807978 42.03670408814574 1.065764756345061 H 0.0 **** 0.06
3511 C 21.98072078425173 83.48484176879455 25.550802145288486 C 0.0 **** -0.24
3512 H 20.90678633421453 83.38752285666365 25.712265020174016 H 0.0 **** 0.06
3513 H 22.41219133782147 84.10009893950536 26.339471331867315 H 0.0 **** 0.06
3514 H 22.16035849283847 83.95344834412302 24.583075130384742 H 0.0 **** 0.06
3515 H 22.440142492978794 82.49657442058609 25.5665414351796 H 0.0 **** 0.06
3516 C 48.92381767256995 8.81816692069907 65.25408248716283 C 0.0 **** -0.24
3517 H 49.98799419581261 8.963555142107964 65.0703654761945 H 0.0 **** 0.06
3518 H 48.613149365538106 7.85678281689502 64.84614849056132 H 0.0 **** 0.06
3519 H 48.35934078286192 9.617380621051495 64.77230165470178 H 0.0 **** 0.06
3520 H 48.73539953580691 8.835738971929459 66.32752704462294 H 0.0 **** 0.06
3521 C 72.86005225214632 16.794605271335854 77.34317181669024 C 0.0 **** -0.24
3522 H 73.48292272758948 15.995685504978269 76.93977249004911 H 0.0 **** 0.06
3523 H 73.19183358715242 17.751970478937167 76.94075484260355 H 0.0 **** 0.06
3524 H 72.94492853740888 16.80759594027454 78.43056307299165 H 0.0 **** 0.06
3525 H 71.82080821680205 16.621529931364194 77.06207894573248 H 0.0 **** 0.06
3526 C 107.97397400168433 34.59429075913109 49.844973701926676 C 0.0 **** -0.24
3527 H 107.44994933565208 35.292750890767934 50.49839627403276 H 0.0 **** 0.06
3528 H 109.03721939422338 34.836069707628695 49.83376566539866 H 0.0 **** 0.06
3529 H 107.57293808652125 34.671287441043276 48.834187812169006 H 0.0 **** 0.06
3530 H 107.83691932217981 33.578140313552495 50.21478808349275 H 0.0 **** 0.06
3531 C 60.058027440731735 22.652151392363795 30.83046203810477 C 0.0 **** -0.24
3532 H 59.86284292940445 23.533743716126658 31.43992515762625 H 0.0 **** 0.06
3533 H 59.456913550088785 22.699189191314105 29.921447722929706 H 0.0 **** 0.06
3534 H 59.79604017093703 21.755982034882344 31.392920519832998 H 0.0 **** 0.06
3535 H 61.114685672915584 22.62026632567807 30.56581683605509 H 0.0 **** 0.06
3536 C 103.9123674997821 58.42767436968361 19.494666497621438 C 0.0 **** -0.24
3537 H 103.80548215755277 58.7225211262429 18.450441262785603 H 0.0 **** 0.06
3538 H 104.88600385217896 57.95886764160226 19.641499610528456 H 0.0 **** 0.06
3539 H 103.1244032034318 57.721364021145355 19.754615156812065 H 0.0 **** 0.06
3540 H 103.83413724861649 59.310014029825645 20.129578398607464 H 0.0 **** 0.06
3541 C 53.46471307151472 48.227704548832094 31.742308749424865 C 0.0 **** -0.24
3542 H 53.983670085961165 47.408663732198164 32.23989906987731 H 0.0 **** 0.06
3543 H 52.46626562451493 48.335495744435406 32.16518118885995 H 0.0 **** 0.06
3544 H 53.38786238501885 48.01397290083389 30.67615624919688 H 0.0 **** 0.06
3545 H 54.023474841934046 49.15236565566434 31.887802828181066 H 0.0 **** 0.06
3546 C 97.48527255215163 14.630467915501313 72.40839602701149 C 0.0 **** -0.24
3547 H 97.63763740284082 15.65933055048319 72.08215221278363 H 0.0 **** 0.06
3548 H 96.8673542724697 14.105714082218242 71.67918628277212 H 0.0 **** 0.06
3549 H 96.98539402069042 14.628231528519336 73.3778566681915 H 0.0 **** 0.06
3550 H 98.4491745844615 14.130957616619384 72.49542828984693 H 0.0 **** 0.06
3551 C 83.23763322750824 112.01458785779226 66.85702475126092 C 0.0 **** -0.24
3552 H 84.14230194845385 112.38713346801981 66.37596166424743 H 0.0 **** 0.06
3553 H 82.74312841092154 112.83319021714183 67.3815298959615 H 0.0 **** 0.06
3554 H 83.50031046443678 111.2326667911486 67.56817901943592 H 0.0 **** 0.06
3555 H 82.56582273515977 111.60788861497969 66.1008317838251 H 0.0 **** 0.06
3556 C 110.13068174110155 34.468554796939955 4.213257466725139 C 0.0 **** -0.24
3557 H 109.05466176627071 34.63982627667442 4.242574331939835 H 0.0 **** 0.06
3558 H 110.32497453659163 33.41361127027028 4.015085928971473 H 0.0 **** 0.06
3559 H 110.56878122914563 34.74513339740735 5.17145390742246 H 0.0 **** 0.06
3560 H 110.57310815524778 35.07469784077283 3.422286603217799 H 0.0 **** 0.06
3561 C 97.96648482867167 69.64337439485928 111.21400648671468 C 0.0 **** -0.24
3562 H 98.07871345428188 70.72643185836273 111.27214172816106 H 0.0 **** 0.06
3563 H 97.51513339960243 69.2747500938791 112.13526129067145 H 0.0 **** 0.06
3564 H 98.9456196114896 69.1844033374033 111.07922888321482 H 0.0 **** 0.06
3565 H 97.32693683897509 69.38876531525113 110.36915505133115 H 0.0 **** 0.06
3566 C 20.146600144918864 55.038633802999556 96.46803764909964 C 0.0 **** -0.24
3567 H 19.10346419480454 55.19639405358612 96.74371052490784 H 0.0 **** 0.06
3568 H 20.387950594526863 53.97807404576224 96.55357406932208 H 0.0 **** 0.06
3569 H 20.78923799436015 55.613168564797405 97.13525035867323 H 0.0 **** 0.06
3570 H 20.303673170406135 55.36598554360404 95.44054445579974 H 0.0 **** 0.06
3571 C 106.59065808987421 62.52875056786575 90.7809146030497 C 0.0 **** -0.24
3572 H 106.7158390209929 62.06001152914805 89.80496284989323 H 0.0 **** 0.06
3573 H 105.99971343850842 63.43856517639869 90.6745792975353 H 0.0 **** 0.06
3574 H 107.56923356068124 62.77630290636217 91.19325466114356 H 0.0 **** 0.06
3575 H 106.07793788448396 61.83846602011614 91.45197847074053 H 0.0 **** 0.06
3576 C 8.30259525999922 28.32375876236071 18.721853649396607 C 0.0 **** -0.24
3577 H 7.8873670063493755 28.302130625958284 17.714691764269773 H 0.0 **** 0.06
3578 H 9.391030415677326 28.299511436680973 18.666741210531285 H 0.0 **** 0.06
3579 H 7.94697517179258 27.45803486828669 19.280467895193823 H 0.0 **** 0.06
3580 H 7.983473106364354 29.236425722807297 19.226223079148127 H 0.0 **** 0.06
3581 C 97.62510092666557 3.910075368174404 100.60108727159269 C 0.0 **** -0.24
3582 H 98.11162880880516 4.877025763927762 100.46950462229682 H 0.0 **** 0.06
3583 H 98.36300337319577 3.114556003660814 100.48927757142204 H 0.0 **** 0.06
3584 H 96.84453280648265 3.7913580243950005 99.85042228485923 H 0.0 **** 0.06
3585 H 97.18420300881331 3.8588153598638186 101.59690545761424 H 0.0 **** 0.06
3586 C 1.5901672573823475 100.30718398138384 86.19375723709467 C 0.0 **** -0.24
3587 H 1.83665722213631 101.12617985724722 85.51836637437455 H 0.0 **** 0.06
3588 H 1.0350197485503259 99.54244325474343 85.64990128786073 H 0.0 **** 0.06
3589 H 0.9805848004702966 100.68526036593346 87.01496239489609 H 0.0 **** 0.06
3590 H 2.508991525141397 99.8764688770114 86.59201327060816 H 0.0 **** 0.06
3591 C 93.69478704153795 106.8145747095434 54.98568289465862 C 0.0 **** -0.24
3592 H 94.43605142917556 107.09732455739754 55.73408993766907 H 0.0 **** 0.06
3593 H 93.10281053959108 105.97933681029255 55.358862232502844 H 0.0 **** 0.06
3594 H 94.2022847404003 106.5195916121184 54.06679797593006 H 0.0 **** 0.06
3595 H 93.04079283745878 107.66286751736541 54.78371189954137 H 0.0 **** 0.06
3596 C 3.1151906951043884 82.71858540880078 1.5540019769682942 C 0.0 **** -0.24
3597 H 2.6060317464492755 83.32432451614375 0.804085506145384 H 0.0 **** 0.06
3598 H 2.3792649163926853 82.28065292855126 2.228308864328511 H 0.0 **** 0.06
3599 H 3.80255335705408 83.34573243852282 2.1219813600368695 H 0.0 **** 0.06
3600 H 3.674299155800554 81.92337453668648 1.0602137362057533 H 0.0 **** 0.06
3601 C 93.87264041037034 6.24674708112957 26.387371963727105 C 0.0 **** -0.24
3602 H 94.56594202434385 5.972864210612897 27.18241750739361 H 0.0 **** 0.06
3603 H 93.9030810316541 5.491547168621878 25.601523447384295 H 0.0 **** 0.06
3604 H 94.15814577400761 7.214187880368627 25.97358770915571 H 0.0 **** 0.06
3605 H 92.86220774092823 6.309581645008507 26.792375761122287 H 0.0 **** 0.06
3606 C 6.215948439789827 47.073435669466086 25.83634516136098 C 0.0 **** -0.24
3607 H 5.672852972429723 46.349587837063964 26.444450458556283 H 0.0 **** 0.06
3608 H 5.800293057390718 47.08493057259439 24.827627663241273 H 0.0 **** 0.06
3609 H 7.2683657090933025 46.79236853979288 25.791673285722702 H 0.0 **** 0.06
3610 H 6.121948251193828 48.063952744241526 26.2795168888698 H 0.0 **** 0.06
3611 C 17.79869333471251 11.052986927285986 74.48068893943793 C 0.0 **** -0.24
3612 H 18.500811380466473 11.877160353015 74.60062942305561 H 0.0 **** 0.06
3613 H 17.54048702452974 10.94586724467348 73.42750034185647 H 0.0 **** 0.06
3614 H 16.89646006356071 11.257771482522372 75.05727355385906 H 0.0 **** 0.06
3615 H 18.256472884407714 10.130940945305099 74.83864210260256 H 0.0 **** 0.06
3616 C 17.16639194743871 17.158363178068868 76.82700751016455 C 0.0 **** -0.24
3617 H 17.33161106596617 18.1228829573827 77.30786785238831 H 0.0 **** 0.06
3618 H 16.106276055480464 17.041187760145334 76.60322730263897 H 0.0 **** 0.06
3619 H 17.487209392180887 16.360280532016162 77.49661758668168 H 0.0 **** 0.06
3620 H 17.741403232451518 17.11056896919405 75.90276237414344 H 0.0 **** 0.06
3621 C 90.03590631180498 6.962393037886059 51.7522586006981 C 0.0 **** -0.24
3622 H 90.19926582493761 5.918865677664456 51.479640162582115 H 0.0 **** 0.06
3623 H 89.32207470310095 7.409260915028042 51.05986712494993 H 0.0 **** 0.06
3624 H 90.9803062533137 7.503785064063223 51.701971609958576 H 0.0 **** 0.06
3625 H 89.64076410250087 7.0147960458753715 52.76698909443189 H 0.0 **** 0.06
3626 C 111.32550215075543 46.67572273648024 98.79594087834482 C 0.0 **** -0.24
3627 H 110.79841555746671 45.77016252091751 99.09703859091644 H 0.0 **** 0.06
3628 H 112.2200179981262 46.40592746058559 98.23391388749369 H 0.0 **** 0.06
3629 H 111.6110003414613 47.24172221461781 99.68362092325631 H 0.0 **** 0.06
3630 H 110.67258698433363 47.28474199541347 98.17088911609656 H 0.0 **** 0.06
3631 C 71.11850333926836 99.72752444793483 30.713449667316866 C 0.0 **** -0.24
3632 H 70.82734886861593 98.6772604565667 30.7477142734312 H 0.0 **** 0.06
3633 H 70.35020363603311 100.33295916371648 31.19446917528029 H 0.0 **** 0.06
3634 H 71.22912770374211 100.0397087702697 29.673901344014098 H 0.0 **** 0.06
3635 H 72.0665259561033 99.85906314794639 31.23523898306985 H 0.0 **** 0.06
3636 C 32.49326955537717 95.13799197934443 83.60913601292702 C 0.0 **** -0.24
3637 H 31.998940361854892 94.69179346414217 84.47164275594503 H 0.0 **** 0.06
3638 H 31.788926495173797 95.77841586412174 83.07832673902422 H 0.0 **** 0.06
3639 H 32.842184726808654 94.34979729534481 82.94256292005198 H 0.0 **** 0.06
3640 H 33.34276667454415 95.7322070456676 83.94597944055698 H 0.0 **** 0.06
3641 C 54.95403167349968 55.047641833581736 46.682421609599295 C 0.0 **** -0.24
3642 H 54.03558559649333 54.62516862554253 47.08969985659203 H 0.0 **** 0.06
3643 H 55.21973427254075 54.52091643331818 45.765146325585164 H 0.0 **** 0.06
3644 H 55.75792100135729 54.9393037534291 47.410635320107666 H 0.0 **** 0.06
3645 H 54.80196863926891 56.10432262261645 46.46355200233402 H 0.0 **** 0.06
3646 C 60.61939074874425 88.71614665790528 25.70119386724034 C 0.0 **** -0.24
3647 H 61.068249970781295 88.90430316427549 26.676574267727638 H 0.0 **** 0.06
3648 H 59.76121507251821 88.0541875853325 25.819266356378286 H 0.0 **** 0.06
3649 H 61.35488578360429 88.2464784070821 25.048249639301158 H 0.0 **** 0.06
3650 H 60.29433955283031 89.65936762485109 25.262845510831127 H 0.0 **** 0.06
3651 C 97.92921811787434 10.149542313704018 42.675575169605594 C 0.0 **** -0.24
3652 H 97.08559973773859 9.830559730789787 42.06497839081172 H 0.0 **** 0.06
3653 H 98.69930877822455 10.582417495364439 42.035215132918154 H 0.0 **** 0.06
3654 H 98.33893425631626 9.290120125603266 43.20698331938101 H 0.0 **** 0.06
3655 H 97.59396302530115 10.896755599337126 43.39626153161666 H 0.0 **** 0.06
3656 C 17.712957340204312 39.176664906043726 65.49983045578043 C 0.0 **** -0.24
3657 H 16.837190916280832 39.35408704229698 66.12316654737734 H 0.0 **** 0.06
3658 H 17.856766730576005 40.021896655547295 64.82717117480672 H 0.0 **** 0.06
3659 H 17.56535720970318 38.26799880028625 64.91562198554976 H 0.0 **** 0.06
3660 H 18.592634031651365 39.06247709400165 66.1343346158288 H 0.0 **** 0.06
3661 C 12.740176641212997 24.62987201200127 64.98362988330689 C 0.0 **** -0.24
3662 H 13.07909713203469 24.621151163854194 63.948327916172055 H 0.0 **** 0.06
3663 H 13.1911505585457 23.79584942067197 65.52094283547706 H 0.0 **** 0.06
3664 H 11.654217981900501 24.535049744789887 65.01090571261909 H 0.0 **** 0.06
3665 H 13.034513099643604 25.568836746950495 65.45410278614017 H 0.0 **** 0.06
3666 C 49.052851530970926 97.13523272692782 95.74509524548836 C 0.0 **** -0.24
3667 H 48.33102943584648 96.92865255764738 94.95446136930613 H 0.0 **** 0.06
3668 H 48.64030849676839 97.87601622492286 96.42964722536433 H 0.0 **** 0.06
3669 H 49.97305353303791 97.52029886783936 95.30396848428086 H 0.0 **** 0.06
3670 H 49.268171154268536 96.21561585753076 96.28890646753973 H 0.0 **** 0.06
3671 C 3.7817205233895095 84.8150760477217 74.68918631019687 C 0.0 **** -0.24
3672 H 3.567134362917784 85.36017246467807 75.60961403357413 H 0.0 **** 0.06
3673 H 2.8689627579974797 84.72726210487107 74.09882757665429 H 0.0 **** 0.06
3674 H 4.15351616471375 83.82043014951279 74.93525525981414 H 0.0 **** 0.06
3675 H 4.535222549106692 85.3546602289181 74.11567172172096 H 0.0 **** 0.06
3676 C 24.60487072716336 33.55489403097957 8.519408376681781 C 0.0 **** -0.24
3677 H 25.650288067010592 33.55023717491895 8.82630613226408 H 0.0 **** 0.06
3678 H 24.318032258233984 34.563042542770916 8.219318899799816 H 0.0 **** 0.06
3679 H 23.980444165517525 33.232064262450535 9.353518620880095 H 0.0 **** 0.06
3680 H 24.469650146305526 32.872543618611104 7.6799068996269 H 0.0 **** 0.06
3681 C 81.11810214668847 111.86512101240653 43.332446868188555 C 0.0 **** -0.24
3682 H 81.25043161514353 110.79220168430149 43.19657427490911 H 0.0 **** 0.06
3683 H 80.06136952848496 112.08459978489344 43.48064119602178 H 0.0 **** 0.06
3684 H 81.4787438159843 112.39041967959264 42.44819844459296 H 0.0 **** 0.06
3685 H 81.68377403368265 112.19267591438184 44.20445115002133 H 0.0 **** 0.06
3686 C 3.022854805833447 29.83316823575717 0.6020802847444973 C 0.0 **** -0.24
3687 H 3.510161839726294 30.53951067708067 -0.06885377416026994 H 0.0 **** 0.06
3688 H 2.7749835918858423 30.333734377257997 1.5381143613713038 H 0.0 **** 0.06
3689 H 3.6947635813126283 28.99924378952994 0.801875008829132 H 0.0 **** 0.06
3690 H 2.1098354383809124 29.461386747307614 0.13632006058321355 H 0.0 **** 0.06
3691 C 78.52153345314485 69.04338019856289 66.62889026321551 C 0.0 **** -0.24
3692 H 78.42690688492306 67.99533632819029 66.34476309679783 H 0.0 **** 0.06
3693 H 78.38562153560795 69.67168732894024 65.74870648552232 H 0.0 **** 0.06
3694 H 79.51065034147894 69.21755720909763 67.05157631387792 H 0.0 **** 0.06
3695 H 77.76181476893751 69.28789529374131 67.37129532791943 H 0.0 **** 0.06
3696 C 12.675657201478213 101.76672728098185 95.22282247559136 C 0.0 **** -0.24
3697 H 11.75184505682435 101.99311803283973 94.69058030263295 H 0.0 **** 0.06
3698 H 13.205151055538323 102.69377958755317 95.44273307518336 H 0.0 **** 0.06
3699 H 13.304390441574775 101.12646587869614 94.6038069206368 H 0.0 **** 0.06
3700 H 12.440394879805986 101.25149800956066 96.15446879565454 H 0.0 **** 0.06
3701 C 89.58192438595242 43.196165998399785 31.775164149973875 C 0.0 **** -0.24
3702 H 88.74683645821065 43.60721300841731 32.34313152974093 H 0.0 **** 0.06
3703 H 89.20037601894285 42.63432454287943 30.92329541277047 H 0.0 **** 0.06
3704 H 90.16551951354495 42.53455606316423 32.41623550117876 H 0.0 **** 0.06
3705 H 90.21469114516387 44.00960942514374 31.42079515498969 H 0.0 **** 0.06
3706 C 103.4103007588555 53.61955897725741 44.00027332676166 C 0.0 **** -0.24
3707 H 102.46987760941201 53.22727879594379 44.387293929418604 H 0.0 **** 0.06
3708 H 103.77200204869979 52.9706607625279 43.20193333761887 H 0.0 **** 0.06
3709 H 104.14757948017157 53.653722871389135 44.80325986859003 H 0.0 **** 0.06
3710 H 103.25142664216867 54.62445428595453 43.60924543116545 H 0.0 **** 0.06
3711 C 5.170343316896028 51.67116622291715 33.98429944096401 C 0.0 **** -0.24
3712 H 5.048827934012527 52.469764448604074 33.25186287333085 H 0.0 **** 0.06
3713 H 6.232688374041256 51.47405711161123 34.133176746389466 H 0.0 **** 0.06
3714 H 4.680442804885015 50.76799933881621 33.62228648303479 H 0.0 **** 0.06
3715 H 4.720781319540517 51.974609090130095 34.929996459368446 H 0.0 **** 0.06
3716 C 100.62369325440434 87.28863983215786 67.8281696707638 C 0.0 **** -0.24
3717 H 100.23994031734352 86.3536898658034 67.42110385720304 H 0.0 **** 0.06
3718 H 100.24868251210833 87.42329022984791 68.84296257066697 H 0.0 **** 0.06
3719 H 100.29294446804045 88.11920549001269 67.20524570212922 H 0.0 **** 0.06
3720 H 101.71320947087335 87.25726345488158 67.84424254377831 H 0.0 **** 0.06
3721 C 30.061981000651997 108.15882016204827 49.251782029406776 C 0.0 **** -0.24
3722 H 29.194323544016555 107.98252807743938 48.61644511259981 H 0.0 **** 0.06
3723 H 29.98506273430263 109.14627480531058 49.70628534790561 H 0.0 **** 0.06
3724 H 30.96994093969144 108.10521083366294 48.64981503253522 H 0.0 **** 0.06
3725 H 30.100240798643085 107.39984685700637 50.03345083582718 H 0.0 **** 0.06
3726 C 18.627019830631895 25.172407343784954 86.52543628306103 C 0.0 **** -0.24
3727 H 17.630620971552332 25.601152235891902 86.4186490316167 H 0.0 **** 0.06
3728 H 19.115077639479324 25.60072315879688 87.40072281290307 H 0.0 **** 0.06
3729 H 19.214472635393633 25.393904215157306 85.63531851819457 H 0.0 **** 0.06
3730 H 18.54587264538435 24.091978090227855 86.64765000732217 H 0.0 **** 0.06
3731 C 85.6649287135566 63.048643791260524 49.17286309277775 C 0.0 **** -0.24
3732 H 84.7802693982625 62.537821849899366 48.790283253578465 H 0.0 **** 0.06
3733 H 86.53114439819223 62.77421309733494 48.570379398843585 H 0.0 **** 0.06
3734 H 85.83438737526586 62.75314156612871 50.208642331088214 H 0.0 **** 0.06
3735 H 85.51201411782517 64.12621021781445 49.122623137164226 H 0.0 **** 0.06
3736 C 35.397298421955526 88.21254983329061 52.5700822660429 C 0.0 **** -0.24
3737 H 36.12512480790179 88.60257263211503 53.2819490979947 H 0.0 **** 0.06
3738 H 35.77746062186491 88.33936094947694 51.55600530608842 H 0.0 **** 0.06
3739 H 34.45819351268761 88.75428492118516 52.67678455580858 H 0.0 **** 0.06
3740 H 35.230109119269564 87.15259738167012 52.7660542705774 H 0.0 **** 0.06
3741 C 5.363478300207433 1.5555139597404946 17.06326565262013 C 0.0 **** -0.24
3742 H 6.409986763113821 1.8503637469075898 17.139430075263775 H 0.0 **** 0.06
3743 H 5.2965257782282436 0.4685065991252486 17.006583959922356 H 0.0 **** 0.06
3744 H 4.927042728871655 1.993353354388887 16.16631416742441 H 0.0 **** 0.06
3745 H 4.821466058219329 1.9076535015096852 17.940573366742232 H 0.0 **** 0.06
3746 C 54.78373972862393 71.85001712988225 101.18452746772365 C 0.0 **** -0.24
3747 H 55.17948629191444 70.83479126503977 101.22460908751256 H 0.0 **** 0.06
3748 H 54.340422316988 72.10455195109938 102.14729436305208 H 0.0 **** 0.06
3749 H 54.024513032883945 71.91278875056395 100.40517522507147 H 0.0 **** 0.06
3750 H 55.59310554695238 72.54540599834803 100.9609995906007 H 0.0 **** 0.06
3751 C 102.71673506882527 85.73115332159409 109.3709123144192 C 0.0 **** -0.24
3752 H 101.65965042312774 85.46925465287924 109.41723220615424 H 0.0 **** 0.06
3753 H 103.28045692156186 84.89414425766782 108.95812432201384 H 0.0 **** 0.06
3754 H 103.07914221317117 85.954618812331 110.37400034122155 H 0.0 **** 0.06
3755 H 102.8457843004278 86.60559555793265 108.7336875356913 H 0.0 **** 0.06
3756 C 20.75404381920479 104.88324987704388 20.942892069999772 C 0.0 **** -0.24
3757 H 20.20094239133094 105.58550747449982 20.31806765799172 H 0.0 **** 0.06
3758 H 21.79066051349292 104.84023464083117 20.608214722322487 H 0.0 **** 0.06
3759 H 20.303826594582848 103.89436926451845 20.862593168388372 H 0.0 **** 0.06
3760 H 20.71917291489282 105.21590939355133 21.97997259569658 H 0.0 **** 0.06
3761 C 50.535814098861884 59.93686068052625 69.88247048434243 C 0.0 **** -0.24
3762 H 50.64824681068332 59.543345336669404 68.87275671915245 H 0.0 **** 0.06
3763 H 51.190472054031986 60.79837771492981 70.01231548852002 H 0.0 **** 0.06
3764 H 50.80388912145385 59.16526523760302 70.60450626624163 H 0.0 **** 0.06
3765 H 49.50067051824245 60.23931132694628 70.04246983376294 H 0.0 **** 0.06
3766 C 88.46457572348729 7.816675894541362 25.487119746749613 C 0.0 **** -0.24
3767 H 87.80717567532409 8.02664835808801 24.6434129665013 H 0.0 **** 0.06
3768 H 89.28039167747662 8.54087122498035 25.500938631402647 H 0.0 **** 0.06
3769 H 88.87239945000832 6.810783710346158 25.38767575567735 H 0.0 **** 0.06
3770 H 87.89770083848151 7.8893567510284015 26.415625958077015 H 0.0 **** 0.06
3771 C 73.98241363993324 104.42366840867007 24.406030278240422 C 0.0 **** -0.24
3772 H 74.79986419200367 103.82912327537204 24.814392972309065 H 0.0 **** 0.06
3773 H 73.87597020054775 104.213694347553 23.34186766665445 H 0.0 **** 0.06
3774 H 74.19669488549252 105.48306727629645 24.548434633997374 H 0.0 **** 0.06
3775 H 73.05621769895109 104.16856799288516 24.921457551079754 H 0.0 **** 0.06
3776 C 83.57126067454959 13.815961729596317 50.38857606392363 C 0.0 **** -0.24
3777 H 84.12887675292745 14.512382236062866 49.76110712840693 H 0.0 **** 0.06
3778 H 83.98348238262008 12.81332084853684 50.27316834657207 H 0.0 **** 0.06
3779 H 82.52391114069104 13.815801498729854 50.0873912494336 H 0.0 **** 0.06
3780 H 83.64937265847738 14.124551781679042 51.43045610308527 H 0.0 **** 0.06
3781 C 18.188110456359425 20.512149707671597 42.0123270527058 C 0.0 **** -0.24
3782 H 17.411930314129563 20.553982124474146 42.77690462502624 H 0.0 **** 0.06
3783 H 18.675177570922813 21.484775300374025 41.93660043117916 H 0.0 **** 0.06
3784 H 17.738530745522382 20.254706133245406 41.053163721570705 H 0.0 **** 0.06
3785 H 18.92529307170645 19.756398762539504 42.284096643240986 H 0.0 **** 0.06
3786 C 17.638146910029917 4.34232654856379 94.7505756868473 C 0.0 **** -0.24
3787 H 17.369496477351078 5.398452103498116 94.75203071141317 H 0.0 **** 0.06
3788 H 16.824036736561936 3.7611100216363837 94.3169947934797 H 0.0 **** 0.06
3789 H 17.817699503992486 4.0116391900598245 95.77378248498383 H 0.0 **** 0.06
3790 H 18.542195301250302 4.198916018347916 94.15821570070997 H 0.0 **** 0.06
3791 C 49.750029300030576 40.583641437464024 39.99654331597492 C 0.0 **** -0.24
3792 H 49.21812841506389 41.25334121825992 40.67269054077775 H 0.0 **** 0.06
3793 H 49.206534787347636 39.64115662146551 39.91671483924728 H 0.0 **** 0.06
3794 H 50.75041358902152 40.3936274079027 40.3864720003437 H 0.0 **** 0.06
3795 H 49.82443155720392 41.045165640401365 39.012029178315686 H 0.0 **** 0.06
3796 C 3.454707654470969 2.8942373587855457 9.854635778910676 C 0.0 **** -0.24
3797 H 4.118237325389041 2.125427780877118 9.457907113174485 H 0.0 **** 0.06
3798 H 3.838407168052667 3.246566574473121 10.812422410460215 H 0.0 **** 0.06
3799 H 2.4575606348912746 2.4759469528529507 9.994576444506464 H 0.0 **** 0.06
3800 H 3.4045146129463255 3.7278083620732616 9.154377677104378 H 0.0 **** 0.06
3801 C 73.03654180801726 50.03534573540918 24.348832553729046 C 0.0 **** -0.24
3802 H 72.15400894649017 49.45485727397869 24.08110274480364 H 0.0 **** 0.06
3803 H 72.94245787906306 50.3854413141122 25.37778095191146 H 0.0 **** 0.06
3804 H 73.12365724642791 50.89177560658845 23.679693400872193 H 0.0 **** 0.06
3805 H 73.92440350088799 49.41082801777475 24.25681326305982 H 0.0 **** 0.06
3806 C 4.134090716150666 11.797749112123626 89.01301695011517 C 0.0 **** -0.24
3807 H 3.5626905617288855 12.088952627018415 89.89389532847844 H 0.0 **** 0.06
3808 H 4.359288011183679 12.683013414652862 88.41817353308346 H 0.0 **** 0.06
3809 H 3.5515344054259117 11.096691853075669 88.41623542257332 H 0.0 **** 0.06
3810 H 5.064665831257315 11.323757412024861 89.3245938929353 H 0.0 **** 0.06
3811 C 45.97293503132872 109.88731413660325 61.121964071292695 C 0.0 **** -0.24
3812 H 46.165221430968074 110.79920611704384 61.68836359090568 H 0.0 **** 0.06
3813 H 45.250074611257276 110.09692695262082 60.33341750977522 H 0.0 **** 0.06
3814 H 45.57208949996263 109.1235820685418 61.78915717307939 H 0.0 **** 0.06
3815 H 46.90297017910791 109.53181654895694 60.67934862809858 H 0.0 **** 0.06
3816 C 61.74929235962139 61.84185098120301 30.53597349152517 C 0.0 **** -0.24
3817 H 60.84517393630017 61.43001432485667 30.98511586602922 H 0.0 **** 0.06
3818 H 61.59545184269632 61.97188647938657 29.465234870299298 H 0.0 **** 0.06
3819 H 62.58143316593015 61.157751678872046 30.703437621887872 H 0.0 **** 0.06
3820 H 61.97417504015195 62.805393060145775 30.991706693109165 H 0.0 **** 0.06
3821 C 79.08918706163624 93.48125487943744 7.0289829165603575 C 0.0 **** -0.24
3822 H 78.59518331185245 94.10031209261584 6.280477192217607 H 0.0 **** 0.06
3823 H 79.27324118025936 94.07298103415133 7.9264675726407585 H 0.0 **** 0.06
3824 H 80.03754885956246 93.1197698622772 6.6314003791468 H 0.0 **** 0.06
3825 H 78.45201235804663 92.63242997839424 7.277091907509858 H 0.0 **** 0.06
3826 C 65.21488963385693 1.894613304413241 91.79229326839098 C 0.0 **** -0.24
3827 H 65.21346637949168 2.9209160104092007 91.42420338985815 H 0.0 **** 0.06
3828 H 66.24153269564027 1.534112652181932 91.85736014261721 H 0.0 **** 0.06
3829 H 64.65022629098604 1.2621453800018685 91.10646232191115 H 0.0 **** 0.06
3830 H 64.75375077693701 1.8621701405165538 92.77918067823015 H 0.0 **** 0.06
3831 C 110.83066493483057 99.3380575650437 16.27092205619101 C 0.0 **** -0.24
3832 H 110.39089039289031 100.19658599198658 16.779217957985963 H 0.0 **** 0.06
3833 H 110.2631921541043 99.12302028216072 15.36454073703095 H 0.0 **** 0.06
3834 H 110.80240687488282 98.47241271153786 16.931704761744243 H 0.0 **** 0.06
3835 H 111.86453275089487 99.56201405069666 16.008486901717788 H 0.0 **** 0.06
3836 C 39.19744583176288 75.78187331768896 86.84368588376452 C 0.0 **** -0.24
3837 H 38.53806693455198 75.70732206080058 87.70776857997583 H 0.0 **** 0.06
3838 H 38.631255567678835 76.14382099090665 85.98511795329313 H 0.0 **** 0.06
3839 H 39.61189593277922 74.79951340162253 86.61703747196646 H 0.0 **** 0.06
3840 H 40.0075394029202 76.47646528100009 87.06391928197087 H 0.0 **** 0.06
3841 C 107.3989335613656 45.17973718754047 38.01767432710213 C 0.0 **** -0.24
3842 H 106.87732356921956 44.65191910632211 37.21956440160506 H 0.0 **** 0.06
3843 H 107.04696109436944 46.210439459384645 38.061715250149355 H 0.0 **** 0.06
3844 H 108.47103879976407 45.16995956371778 37.81960569876634 H 0.0 **** 0.06
3845 H 107.20108849240194 44.68689333908338 38.96912512125942 H 0.0 **** 0.06
3846 C 1.8047770201330309 75.64439747211915 70.14169191049695 C 0.0 **** -0.24
3847 H 2.2259730957495094 75.79740873013961 71.13637473943749 H 0.0 **** 0.06
3848 H 1.0590494932365573 76.41311649860683 69.94177232297793 H 0.0 **** 0.06
3849 H 1.3371657103517975 74.66129158474357 70.09366243329092 H 0.0 **** 0.06
3850 H 2.5990722018189274 75.70633568121954 69.3979666930754 H 0.0 **** 0.06
3851 C 17.262357524478205 61.12860061510162 69.59732272737358 C 0.0 **** -0.24
3852 H 17.96461742586402 61.84480451744815 70.02471649129382 H 0.0 **** 0.06
3853 H 17.792495979225748 60.463219376447 68.9156942124059 H 0.0 **** 0.06
3854 H 16.484661203933243 61.66403690781328 69.05250182812532 H 0.0 **** 0.06
3855 H 16.807732012674705 60.54468938942267 70.39707310416242 H 0.0 **** 0.06
3856 C 75.00827511378611 27.642464505429103 50.42006225646164 C 0.0 **** -0.24
3857 H 74.67812351329081 28.170996226049 49.525288776948976 H 0.0 **** 0.06
3858 H 74.24862400857901 26.91934776068365 50.71634884361551 H 0.0 **** 0.06
3859 H 75.16480917083987 28.358335409040166 51.226500898588306 H 0.0 **** 0.06
3860 H 75.9430749809338 27.122723138955763 50.20906573353368 H 0.0 **** 0.06
3861 C 28.003027567438778 64.88018783623312 20.45544194284207 C 0.0 **** -0.24
3862 H 27.451890218325957 65.7734466038855 20.16227005062953 H 0.0 **** 0.06
3863 H 27.639503576574498 64.0257261541646 19.883752352867816 H 0.0 **** 0.06
3864 H 27.85543429364907 64.6955382809478 21.51925730626982 H 0.0 **** 0.06
3865 H 29.064628196677063 65.02659559395764 20.255363751637162 H 0.0 **** 0.06
3866 C 57.30491742455038 55.7416023288265 0.664835596690807 C 0.0 **** -0.24
3867 H 57.97988070574511 55.00468152776454 1.1003361159199017 H 0.0 **** 0.06
3868 H 57.502340314653544 55.82831066947908 -0.4037107365124939 H 0.0 **** 0.06
3869 H 57.46442669706565 56.707269941005286 1.1446358134907655 H 0.0 **** 0.06
3870 H 56.272786102908896 55.42536019327615 0.8186513472675756 H 0.0 **** 0.06
3871 C 49.170350401902766 99.42295483098181 77.10314866284921 C 0.0 **** -0.24
3872 H 49.87593327903423 99.62529817301635 76.29774545392758 H 0.0 **** 0.06
3873 H 49.6639136707428 99.57478378541376 78.06425208440982 H 0.0 **** 0.06
3874 H 48.823042402442525 98.39228589567654 77.03131491952482 H 0.0 **** 0.06
3875 H 48.32085704314204 100.10051239218606 77.02045559369151 H 0.0 **** 0.06
3876 C 47.48700145240295 17.44475001930158 2.244635199217738 C 0.0 **** -0.24
3877 H 47.75421211203698 18.412393057297265 2.6691947326840744 H 0.0 **** 0.06
3878 H 47.70061142207393 16.659169228770452 2.969371004026156 H 0.0 **** 0.06
3879 H 48.0687906281112 17.272002554974392 1.3392949039161817 H 0.0 **** 0.06
3880 H 46.42499390023423 17.43625624372885 2.0016616609756426 H 0.0 **** 0.06
3881 C 69.10817092155523 33.83928954039732 108.22795343871572 C 0.0 **** -0.24
3882 H 69.55402693145413 33.04982509427748 108.83353640945684 H 0.0 **** 0.06
3883 H 68.651483010551 34.58444827954523 108.88121306189421 H 0.0 **** 0.06
3884 H 68.34634586551809 33.411017025709455 107.57718037430585 H 0.0 **** 0.06
3885 H 69.88065174996072 34.31135336507201 107.62205293157297 H 0.0 **** 0.06
3886 C 7.987035031672249 80.74348394573423 52.747963878348884 C 0.0 **** -0.24
3887 H 8.056453841851749 79.7961928766037 53.28224659607392 H 0.0 **** 0.06
3888 H 7.027952689380385 81.21496036246083 52.965873319588155 H 0.0 **** 0.06
3889 H 8.067847287008561 80.56178698770401 51.676036636794066 H 0.0 **** 0.06
3890 H 8.796255898621851 81.40014612422618 53.06732223132349 H 0.0 **** 0.06
3891 C 69.75071437290038 1.5331686639160296 35.48816417941467 C 0.0 **** -0.24
3892 H 70.29609337459536 2.421649971095931 35.17014830941929 H 0.0 **** 0.06
3893 H 69.34167498031701 1.0263603213801389 34.61440652330623 H 0.0 **** 0.06
3894 H 68.9387208379047 1.8250173474827847 36.15391804836264 H 0.0 **** 0.06
3895 H 70.42804868770313 0.8608488182363772 36.015039551111286 H 0.0 **** 0.06
3896 C 103.4657767478777 24.33284676739129 40.189725884491565 C 0.0 **** -0.24
3897 H 103.99026638022607 23.74880275787541 39.43438719717955 H 0.0 **** 0.06
3898 H 104.13536484883821 24.527890340618967 41.027991489602 H 0.0 **** 0.06
3899 H 102.59657093207556 23.774671446580356 40.540781544480765 H 0.0 **** 0.06
3900 H 103.13957132053613 25.278285006183978 39.756193934348374 H 0.0 **** 0.06
3901 C 15.35493899246859 32.22943700207503 42.328008159896314 C 0.0 **** -0.24
3902 H 15.652129698863803 33.048558250984286 42.98426006124751 H 0.0 **** 0.06
3903 H 14.337944867046076 32.39905661073345 41.97320036091233 H 0.0 **** 0.06
3904 H 15.396976840728826 31.29003574691137 42.87778302254148 H 0.0 **** 0.06
3905 H 16.034137442147937 32.18308620209922 41.47690978521035 H 0.0 **** 0.06
3906 C 61.16629498647595 9.219299693922572 20.053263421899715 C 0.0 **** -0.24
3907 H 61.9799627440058 9.793302867857705 19.60936303488438 H 0.0 **** 0.06
3908 H 60.841557495916675 9.703871973553621 20.97431916746382 H 0.0 **** 0.06
3909 H 61.51305821243727 8.209902235871512 20.274799947999725 H 0.0 **** 0.06
3910 H 60.33150862874646 9.172085152248862 19.354003876828017 H 0.0 **** 0.06
3911 C 97.9204804544427 92.83566260142686 37.55126601396603 C 0.0 **** -0.24
3912 H 97.84815782469053 93.90731967215584 37.366829231710255 H 0.0 **** 0.06
3913 H 98.87530557061905 92.4670252339543 37.17504541830027 H 0.0 **** 0.06
3914 H 97.1054630191185 92.32361685618838 37.03857098517028 H 0.0 **** 0.06
3915 H 97.85278758261285 92.64552218112996 38.622553884650415 H 0.0 **** 0.06
3916 C 48.91211587886494 107.34140436645654 31.08441336018859 C 0.0 **** -0.24
3917 H 48.153147007305364 106.89191411983455 31.725197405418896 H 0.0 **** 0.06
3918 H 49.338956889349674 108.21254532464494 31.582019234191534 H 0.0 **** 0.06
3919 H 48.455167166257326 107.64777609434122 30.14280266790422 H 0.0 **** 0.06
3920 H 49.69768919807936 106.61247182323439 30.886685601010413 H 0.0 **** 0.06
3921 C 72.4037061917403 1.3384004704892334 7.787154473151247 C 0.0 **** -0.24
3922 H 72.72670222817811 2.207087488277935 7.213143293829205 H 0.0 **** 0.06
3923 H 72.89026723091425 0.4445155795547464 7.395385903764122 H 0.0 **** 0.06
3924 H 71.32208129194234 1.2297849119690767 7.704919156716869 H 0.0 **** 0.06
3925 H 72.67745930221358 1.4725842892921293 8.83343087103492 H 0.0 **** 0.06
3926 C 15.843706882368764 20.51468100508086 60.97819075305921 C 0.0 **** -0.24
3927 H 16.86361140036786 20.639216537749945 61.342853746093624 H 0.0 **** 0.06
3928 H 15.250733091481834 21.38809251922038 61.25162788320347 H 0.0 **** 0.06
3929 H 15.404793960357239 19.622527659857127 61.424346800668445 H 0.0 **** 0.06
3930 H 15.855922707055242 20.409124713603887 59.89299165582287 H 0.0 **** 0.06
3931 C 63.19668191839253 79.77600584206425 79.71308110645293 C 0.0 **** -0.24
3932 H 63.666440390066356 79.96216761449483 78.74667061955748 H 0.0 **** 0.06
3933 H 63.6219238681895 80.44926303223065 80.45799350442886 H 0.0 **** 0.06
3934 H 63.37636596245153 78.74323309506275 80.01111879882097 H 0.0 **** 0.06
3935 H 62.123792203279976 79.95073801362946 79.63457187606346 H 0.0 **** 0.06
3936 C 76.02207080457157 110.8883175375038 104.0131347648076 C 0.0 **** -0.24
3937 H 76.67011713045684 110.4802773162011 103.23695271570696 H 0.0 **** 0.06
3938 H 76.49768298197935 110.76124484670031 104.98530858781521 H 0.0 **** 0.06
3939 H 75.06815266756067 110.36116546570439 104.00352947229237 H 0.0 **** 0.06
3940 H 75.85362428620454 111.94825892194176 103.82535999180445 H 0.0 **** 0.06
3941 C 72.0529804397384 62.27084431178483 37.7846597868504 C 0.0 **** -0.24
3942 H 71.35847463906924 62.92513638500256 37.25768923048781 H 0.0 **** 0.06
3943 H 72.30894542836882 62.71368569023093 38.747018767940745 H 0.0 **** 0.06
3944 H 72.95664806295218 62.146389444421146 37.18800812787538 H 0.0 **** 0.06
3945 H 71.5856947909113 61.29914287594568 37.94382894179785 H 0.0 **** 0.06
3946 C 28.83458801559196 3.017587866045062 45.459890094921946 C 0.0 **** -0.24
3947 H 28.697096416872967 2.291963547994669 44.65813526509942 H 0.0 **** 0.06
3948 H 29.041897040197284 2.492872640346377 46.392856506696376 H 0.0 **** 0.06
3949 H 27.92911459251014 3.614035572191753 45.570558026014055 H 0.0 **** 0.06
3950 H 29.672205068812225 3.6715031738259114 45.216542914081685 H 0.0 **** 0.06
3951 C 98.99820797493709 14.228026229509894 107.68791527236287 C 0.0 **** -0.24
3952 H 98.59892222969015 15.041820714331163 107.08285180277444 H 0.0 **** 0.06
3953 H 98.21349590792104 13.495342393506782 107.87459607196355 H 0.0 **** 0.06
3954 H 99.35884058907189 14.625046393700003 108.6376086867892 H 0.0 **** 0.06
3955 H 99.82236613839373 13.751004120123007 107.15767324324564 H 0.0 **** 0.06
3956 C 94.11028323888593 88.97831968375638 11.725971619974388 C 0.0 **** -0.24
3957 H 94.11710024285509 90.0128749432921 12.067857981290175 H 0.0 **** 0.06
3958 H 94.72083817914546 88.8890686120055 10.826417060691227 H 0.0 **** 0.06
3959 H 93.08744398893674 88.67470306740455 11.502854582858035 H 0.0 **** 0.06
3960 H 94.5179466286358 88.33623192199943 12.506888560254737 H 0.0 **** 0.06
3961 C 25.273068771423652 66.44229107093477 103.74008442513966 C 0.0 **** -0.24
3962 H 24.254826805653323 66.29317896222929 103.38170301790845 H 0.0 **** 0.06
3963 H 25.27841288750122 66.43531483041446 104.83068803832367 H 0.0 **** 0.06
3964 H 25.647778179270375 67.40021310195561 103.3810307160715 H 0.0 **** 0.06
3965 H 25.909459631201685 65.64022465569153 103.36776136349576 H 0.0 **** 0.06
3966 C 28.451999127591932 85.76722393723361 106.96674692011658 C 0.0 **** -0.24
3967 H 29.149971973893145 85.16399028723902 107.54855663272265 H 0.0 **** 0.06
3968 H 28.30817474095727 85.31089213734907 105.98772997236438 H 0.0 **** 0.06
3969 H 28.85574276377571 86.77176326364966 106.84494321764913 H 0.0 **** 0.06
3970 H 27.49639408980974 85.82043477584256 107.48883602720521 H 0.0 **** 0.06
3971 C 88.78100760724158 31.543354242421287 97.90893719191058 C 0.0 **** -0.24
3972 H 88.14570668649125 31.089124662087812 97.14855267146345 H 0.0 **** 0.06
3973 H 89.21777594708624 32.4622507731647 97.51498402271977 H 0.0 **** 0.06
3974 H 89.5764043788891 30.849050757305918 98.17959015825753 H 0.0 **** 0.06
3975 H 88.18308482528863 31.773935059294956 98.79062490338941 H 0.0 **** 0.06
3976 C 15.92516331969449 90.82233736989087 46.89553345494906 C 0.0 **** -0.24
3977 H 15.683022874584708 90.12426938550544 47.69680836179484 H 0.0 **** 0.06
3978 H 15.426858608291624 91.77430954201816 47.08094066888469 H 0.0 **** 0.06
3979 H 15.587392097912101 90.41321770601513 45.94352081075519 H 0.0 **** 0.06
3980 H 17.003550444894188 90.97622106369636 46.8623463508583 H 0.0 **** 0.06
3981 C 1.463567205228685 21.945356014699996 79.02413785008733 C 0.0 **** -0.24
3982 H 1.4020979549352717 23.02048627078301 78.85264467344749 H 0.0 **** 0.06
3983 H 0.4607313156636934 21.51862576576781 79.01946389957143 H 0.0 **** 0.06
3984 H 1.9342314655412736 21.759210071998325 79.98940580318825 H 0.0 **** 0.06
3985 H 2.058199239842409 21.48625281880271 78.23473658619034 H 0.0 **** 0.06
3986 C 81.58238198974524 75.99675612294078 68.70456534420978 C 0.0 **** -0.24
3987 H 81.75752572240003 75.88738209129326 69.77420234232781 H 0.0 **** 0.06
3988 H 82.12639279848239 75.21898266012559 68.16638395540289 H 0.0 **** 0.06
3989 H 81.9324826995647 76.97587703905188 68.37782368940901 H 0.0 **** 0.06
3990 H 80.51592593614055 75.90388168604588 68.49831734659577 H 0.0 **** 0.06
3991 C 44.42135598590522 92.54182745427698 73.47987440460182 C 0.0 **** -0.24
3992 H 45.42046953208827 92.25247161276297 73.80580493894854 H 0.0 **** 0.06
3993 H 44.40349798396583 93.61057747409629 73.26857408506262 H 0.0 **** 0.06
3994 H 43.70297056060374 92.31473618152927 74.26846581015585 H 0.0 **** 0.06
3995 H 44.1594650070104 91.98761405306828 72.57874844682019 H 0.0 **** 0.06
3996 C 104.96492826634406 19.9356521383973 96.1170990861417 C 0.0 **** -0.24
3997 H 105.85423529967761 20.535366815725126 95.92152369383342 H 0.0 **** 0.06
3998 H 104.18618432377812 20.568844638667997 96.54207498220825 H 0.0 **** 0.06
3999 H 105.21038961363448 19.13944730463001 96.81934116404324 H 0.0 **** 0.06
4000 H 104.6088594645594 19.499068263697353 95.18301021397014 H 0.0 **** 0.06
4001 C 111.40143874439659 100.23511809489659 24.85688249920156 C 0.0 **** -0.24
4002 H 110.66497706157456 100.66254161578954 24.176589400768023 H 0.0 **** 0.06
4003 H 111.92707368162313 101.0375211392736 25.37415866818688 H 0.0 **** 0.06
4004 H 112.11657036032473 99.63820711667583 24.28949415494219 H 0.0 **** 0.06
4005 H 110.89691735256999 99.60148064106716 25.586091052289362 H 0.0 **** 0.06
4006 C 111.74023874053884 87.27639193143528 101.40688538155385 C 0.0 **** -0.24
4007 H 110.88461304284864 87.94646449146668 101.4916487543488 H 0.0 **** 0.06
4008 H 112.64353942023537 87.79848637566087 101.72549764347835 H 0.0 **** 0.06
4009 H 111.85098721137516 86.95904471709204 100.37041740686473 H 0.0 **** 0.06
4010 H 111.5828028638814 86.4038133638328 102.03993349288572 H 0.0 **** 0.06
4011 C 110.49703357619565 6.597508383201671 72.8525390251933 C 0.0 **** -0.24
4012 H 109.73052909890086 6.233709676621544 72.16874977413462 H 0.0 **** 0.06
4013 H 110.11033551555127 7.447768243894217 73.41373073023061 H 0.0 **** 0.06
4014 H 111.3741750133695 6.905809728419314 72.28328460870003 H 0.0 **** 0.06
4015 H 110.77397068112865 5.800965199559258 73.54336042296157 H 0.0 **** 0.06
4016 C 36.933814303123846 53.70938731455808 96.26458687156699 C 0.0 **** -0.24
4017 H 37.99068458620565 53.60003140351067 96.50704482138278 H 0.0 **** 0.06
4018 H 36.331808262989455 53.37649479520479 97.11063931716762 H 0.0 **** 0.06
4019 H 36.69820536349933 53.10280215431802 95.38990333747813 H 0.0 **** 0.06
4020 H 36.715894105519425 54.754753903115194 96.05120518818174 H 0.0 **** 0.06
4021 C 51.12401628386814 21.698948100224186 66.49312181496606 C 0.0 **** -0.24
4022 H 51.459398390331934 20.67723486991781 66.31841566380774 H 0.0 **** 0.06
4023 H 50.95144425007657 22.194017239645532 65.53745564207247 H 0.0 **** 0.06
4024 H 51.88796486891638 22.24161468925729 67.05102144158207 H 0.0 **** 0.06
4025 H 50.19742824522967 21.683300745599837 67.06779233861994 H 0.0 **** 0.06
4026 C 19.358948077081152 87.66096761599246 89.29842996499991 C 0.0 **** -0.24
4027 H 18.77924406877645 87.66015150831956 90.22151067018882 H 0.0 **** 0.06
4028 H 20.419734549157624 87.57934988148133 89.53555018509144 H 0.0 **** 0.06
4029 H 19.17722246399194 88.5895937269598 88.75706709531534 H 0.0 **** 0.06
4030 H 19.05685584069073 86.81538387424882 88.67997637482074 H 0.0 **** 0.06
4031 C 63.810999507068004 82.58106323501593 22.816831292192433 C 0.0 **** -0.24
4032 H 64.11927080654914 81.61449569141121 23.216804347612424 H 0.0 **** 0.06
4033 H 62.899530237409294 82.90688225463313 23.319671447625154 H 0.0 **** 0.06
4034 H 63.62357552290598 82.48865804669 21.747359514514656 H 0.0 **** 0.06
4035 H 64.60054961299795 83.31287272811852 22.98681326236867 H 0.0 **** 0.06
4036 C 103.05878036499695 31.160696822712055 78.589048443764 C 0.0 **** -0.24
4037 H 101.99528731088395 31.203533325638432 78.82402917837828 H 0.0 **** 0.06
4038 H 103.56570990810275 30.523986062585436 79.31481031450915 H 0.0 **** 0.06
4039 H 103.47974730335875 32.16590402276216 78.63005797276128 H 0.0 **** 0.06
4040 H 103.19375837367323 30.751654491804914 77.58790525594566 H 0.0 **** 0.06
4041 C 36.052535622448346 20.1135017794349 20.148536645923986 C 0.0 **** -0.24
4042 H 36.36698799981403 20.334011579806543 19.12809921059014 H 0.0 **** 0.06
4043 H 36.339862061032086 19.09298217758382 20.404559560048767 H 0.0 **** 0.06
4044 H 34.97092614263835 20.217053095613323 20.225083067904322 H 0.0 **** 0.06
4045 H 36.533886533240185 20.81014884210333 20.834493298531203 H 0.0 **** 0.06
4046 C 53.43624267046894 75.8228905906492 55.58746435455032 C 0.0 **** -0.24
4047 H 52.555350887444774 75.18631371392576 55.513161878261144 H 0.0 **** 0.06
4048 H 53.19874022799061 76.81704090923932 55.207992142383034 H 0.0 **** 0.06
4049 H 54.246542050921505 75.39269709908547 54.99677915668451 H 0.0 **** 0.06
4050 H 53.74638647539007 75.89470878298653 56.62944242456547 H 0.0 **** 0.06
4051 C 74.73644694786088 31.44062529598682 96.36232800599404 C 0.0 **** -0.24
4052 H 74.79439968904651 31.914534765156986 97.34237275163687 H 0.0 **** 0.06
4053 H 73.81736963599059 31.746985523779642 95.86393295146434 H 0.0 **** 0.06
4054 H 74.74017269569748 30.356808485960926 96.48337221329635 H 0.0 **** 0.06
4055 H 75.59472111548135 31.742355671336156 95.7620700474072 H 0.0 **** 0.06
4056 C 64.45402994320852 45.249222221645596 52.072105612738284 C 0.0 **** -0.24
4057 H 64.2859458256946 46.20294030029123 52.57224353171776 H 0.0 **** 0.06
4058 H 63.66476089823555 45.07932926996045 51.33911365839711 H 0.0 **** 0.06
4059 H 64.44555585230842 44.44591153072912 52.808470661883405 H 0.0 **** 0.06
4060 H 65.42036313206566 45.26854122722227 51.56666677258795 H 0.0 **** 0.06
4061 C 79.88024520504993 93.51877221505322 0.0239647755983583 C 0.0 **** -0.24
4062 H 79.78112047028475 92.4878963385583 -0.31667672259749224 H 0.0 **** 0.06
4063 H 79.20841628074868 93.68967681285287 0.8656529337755501 H 0.0 **** 0.06
4064 H 79.62200383382384 94.19647045891907 -0.7908456164220752 H 0.0 **** 0.06
4065 H 80.90818052114088 93.70147131282184 0.33523210136235093 H 0.0 **** 0.06
4066 C 27.138141118300723 82.96001023164655 76.9446718689288 C 0.0 **** -0.24
4067 H 26.994791242251154 82.02808129445657 77.49095350194713 H 0.0 **** 0.06
4068 H 27.72806684153761 82.76793146483791 76.0476301405192 H 0.0 **** 0.06
4069 H 27.662406625947938 83.67514358466025 77.5782982057741 H 0.0 **** 0.06
4070 H 26.1675209155444 83.36745107128647 76.66085889247856 H 0.0 **** 0.06
4071 C 34.43774293644117 96.7464282918298 39.01669444437661 C 0.0 **** -0.24
4072 H 34.76841942702919 95.87761699730461 39.58649741513736 H 0.0 **** 0.06
4073 H 33.84406650838281 97.397206207196 39.65875425399102 H 0.0 **** 0.06
4074 H 33.83181564735469 96.4173227608809 38.17215842181744 H 0.0 **** 0.06
4075 H 35.30727197693403 97.29194737254011 38.64948661040421 H 0.0 **** 0.06
4076 C 78.51195295614284 40.88564185648651 5.62340411302651 C 0.0 **** -0.24
4077 H 78.82917366215145 41.92693250038107 5.684733069262478 H 0.0 **** 0.06
4078 H 77.86566563426308 40.6519220440593 6.469488707181881 H 0.0 **** 0.06
4079 H 79.38888237503917 40.238378907130695 5.646139092529268 H 0.0 **** 0.06
4080 H 77.9657224353731 40.72585191426461 4.69351551212182 H 0.0 **** 0.06
4081 C 20.80633457341014 15.256308775937242 13.318204630539924 C 0.0 **** -0.24
4082 H 21.26024549081862 16.19885539769436 13.013173322493202 H 0.0 **** 0.06
4083 H 20.551158811675208 14.672042387535072 12.43459416245031 H 0.0 **** 0.06
4084 H 19.90285760577902 15.457888608583858 13.894023482883526 H 0.0 **** 0.06
4085 H 21.511674739607713 14.696240915265435 13.933393803245849 H 0.0 **** 0.06
4086 C 83.03472660540564 86.01154692239604 76.06458850088114 C 0.0 **** -0.24
4087 H 83.3705872305375 86.10482625927065 77.09740116605238 H 0.0 **** 0.06
4088 H 83.54688003712931 86.75000239409755 75.4473407408089 H 0.0 **** 0.06
4089 H 81.95881946203582 86.17965717238226 76.01622367285333 H 0.0 **** 0.06
4090 H 83.26408256125131 85.01041500918112 75.69784035889029 H 0.0 **** 0.06
4091 C 20.3729396388743 77.37451704189726 56.784129422263106 C 0.0 **** -0.24
4092 H 19.364089465634663 77.15535785423648 57.135681753543594 H 0.0 **** 0.06
4093 H 20.320921933994725 77.83458984089509 55.79669656829344 H 0.0 **** 0.06
4094 H 20.944982156026725 76.44852565639516 56.724315445868825 H 0.0 **** 0.06
4095 H 20.858971962416234 78.05853699979667 57.478784434007764 H 0.0 **** 0.06
4096 C 96.68785393333167 91.14359908526157 104.8143431529073 C 0.0 **** -0.24
4097 H 95.75382390161855 91.05656668492588 104.2606080482251 H 0.0 **** 0.06
4098 H 97.5284260176254 91.0361298692338 104.12761437132741 H 0.0 **** 0.06
4099 H 96.7353035069768 90.36193216655468 105.57213053831413 H 0.0 **** 0.06
4100 H 96.73476376057073 92.1201241850537 105.29677409323156 H 0.0 **** 0.06
4101 C 19.69093504716983 59.58790342262452 76.27381086339611 C 0.0 **** -0.24
4102 H 20.327579638232734 59.661879832008225 75.39173853808285 H 0.0 **** 0.06
4103 H 20.081354458025004 60.237143963493565 77.05788409209407 H 0.0 **** 0.06
4104 H 19.67946475775811 58.55748496441805 76.62797830859765 H 0.0 **** 0.06
4105 H 18.67729301187606 59.896192019270785 76.01773986906247 H 0.0 **** 0.06
4106 C 34.118262481984516 47.28442021683567 3.8134804749809064 C 0.0 **** -0.24
4107 H 34.6535549011538 47.89737862593028 3.0886602372277565 H 0.0 **** 0.06
4108 H 34.61911135953163 46.32091917596022 3.9140419164826454 H 0.0 **** 0.06
4109 H 33.09513973512543 47.12784669077835 3.4706816922697925 H 0.0 **** 0.06
4110 H 34.10499499834526 47.79009638325716 4.778572145239238 H 0.0 **** 0.06
4111 C 97.57732308203998 73.73523809807358 27.364542281969534 C 0.0 **** -0.24
4112 H 97.41376023156266 74.00353038850764 26.320751192735344 H 0.0 **** 0.06
4113 H 97.64379549438826 74.64143584510617 27.96610891745965 H 0.0 **** 0.06
4114 H 98.50533359940744 73.17034020298476 27.45265150964312 H 0.0 **** 0.06
4115 H 96.7455353849665 73.12452347941996 27.71666060377504 H 0.0 **** 0.06
4116 C 89.50894971083136 75.14058562464649 34.440232930933576 C 0.0 **** -0.24
4117 H 88.51725518325517 75.59200958925513 34.4883561101924 H 0.0 **** 0.06
4118 H 89.51398440452758 74.21336386452307 35.013481450183576 H 0.0 **** 0.06
4119 H 90.24180360996104 75.83026248414396 34.85733160292136 H 0.0 **** 0.06
4120 H 89.76058060164269 74.92663766731701 33.401248049806156 H 0.0 **** 0.06
4121 C 38.70591858883498 43.01169251048074 108.98301417264486 C 0.0 **** -0.24
4122 H 38.80473438818115 43.90924063814643 108.37351674470698 H 0.0 **** 0.06
4123 H 37.98468735224847 43.19262314036317 109.78157922500014 H 0.0 **** 0.06
4124 H 39.67367736199769 42.759719815789936 109.41781776561747 H 0.0 **** 0.06
4125 H 38.36038369372433 42.18617201269626 108.36178727375942 H 0.0 **** 0.06
4126 C 66.59438255106687 37.78630629801421 4.133023456297696 C 0.0 **** -0.24
4127 H 65.63010130428637 37.8214352046209 4.639135081090853 H 0.0 **** 0.06
4128 H 66.43779328407214 37.66865889345006 3.060689418613208 H 0.0 **** 0.06
4129 H 67.17309492352268 36.944049534557166 4.510785103395419 H 0.0 **** 0.06
4130 H 67.13686351011455 38.71272345490951 4.32103685410404 H 0.0 **** 0.06
4131 C 102.94240006001175 46.636258124533924 87.886179596018 C 0.0 **** -0.24
4132 H 103.49896944639363 45.88464018101695 87.32611942978744 H 0.0 **** 0.06
4133 H 101.96903463522858 46.233288085645256 88.16697368340434 H 0.0 **** 0.06
4134 H 102.80465551062034 47.5220828013324 87.26623244939776 H 0.0 **** 0.06
4135 H 103.49775297616605 46.90388570295656 88.78561723146962 H 0.0 **** 0.06
4136 C 102.60809574490634 94.63557164799266 33.16182189547658 C 0.0 **** -0.24
4137 H 103.17779849860494 95.47923832122746 32.772008199967786 H 0.0 **** 0.06
4138 H 101.55309439119549 94.76879019204321 32.92190031200195 H 0.0 **** 0.06
4139 H 102.73174983745207 94.58273012596794 34.24332030371974 H 0.0 **** 0.06
4140 H 102.97040571895229 93.71267432028779 32.70856102706924 H 0.0 **** 0.06
4141 C 101.68679035860279 3.7759044703631446 77.59517654096601 C 0.0 **** -0.24
4142 H 101.7316090904263 3.461981738280002 78.63815410725263 H 0.0 **** 0.06
4143 H 101.36228205692376 2.93849852928426 76.97740470038414 H 0.0 **** 0.06
4144 H 102.67489614929917 4.105212693752833 77.27217268913833 H 0.0 **** 0.06
4145 H 100.97897658647267 4.598865798793213 77.49384179819216 H 0.0 **** 0.06
4146 C 2.6483934819476787 110.01124858196053 16.710565155027425 C 0.0 **** -0.24
4147 H 3.62270130778019 110.45821993632646 16.90573227453654 H 0.0 **** 0.06
4148 H 2.7645575394947315 108.93516566059019 16.570286791413018 H 0.0 **** 0.06
4149 H 2.2209408078056185 110.45141526294267 15.809599617598504 H 0.0 **** 0.06
4150 H 1.9869126023184123 110.19782541764035 17.55680421218849 H 0.0 **** 0.06
4151 C 64.69338243641761 99.2773491341421 24.788537194764643 C 0.0 **** -0.24
4152 H 65.54886780248776 99.1758648197924 24.12052587106973 H 0.0 **** 0.06
4153 H 65.01776360897387 99.12914956407673 25.819207951847147 H 0.0 **** 0.06
4154 H 63.94253228388939 98.53006947394246 24.531859290204295 H 0.0 **** 0.06
4155 H 64.26515883166877 100.27421668711881 24.68195371904457 H 0.0 **** 0.06
4156 C 67.12549882298083 22.229532224204416 111.96818531962342 C 0.0 **** -0.24
4157 H 67.03946284101022 22.720195798671053 112.93807732300748 H 0.0 **** 0.06
4158 H 67.45313606555271 21.199590324145973 112.10975478393655 H 0.0 **** 0.06
4159 H 67.85316523981288 22.762496751094876 111.35591592891544 H 0.0 **** 0.06
4160 H 66.1558702060916 22.238985503361974 111.47000022283946 H 0.0 **** 0.06
4161 C 81.90565086634336 18.2479113854305 36.14298419283182 C 0.0 **** -0.24
4162 H 82.98953711414467 18.353668911452843 36.13036568822963 H 0.0 **** 0.06
4163 H 81.6444357550645 17.203302047576003 36.31508718815934 H 0.0 **** 0.06
4164 H 81.4975296760361 18.571302499007416 35.18522916648459 H 0.0 **** 0.06
4165 H 81.49015410975827 18.862321722392096 36.94123461070291 H 0.0 **** 0.06
4166 C 33.71966000109009 37.33951579681009 21.810759395602787 C 0.0 **** -0.24
4167 H 34.146465962960406 36.34135214702446 21.90885827279434 H 0.0 **** 0.06
4168 H 32.66778975398833 37.26004184901935 21.536179230999412 H 0.0 **** 0.06
4169 H 34.25696689350815 37.88937477863005 21.03725447375042 H 0.0 **** 0.06
4170 H 33.8093671591636 37.86763271418449 22.76045544225727 H 0.0 **** 0.06
4171 C 19.895025902961265 1.5420850918257543 94.48706429633404 C 0.0 **** -0.24
4172 H 19.005476469417886 1.4013474607057503 93.87377393712165 H 0.0 **** 0.06
4173 H 20.14071890297535 2.603018494072103 94.53112837679339 H 0.0 **** 0.06
4174 H 20.728794897654666 0.9940284795752632 94.04865514683712 H 0.0 **** 0.06
4175 H 19.704435473997307 1.1709709200338239 95.49399971731947 H 0.0 **** 0.06
4176 C 1.8809588120844918 108.28270758067612 26.157175123682833 C 0.0 **** -0.24
4177 H 1.6440363987847917 109.09795363798486 26.841566886682642 H 0.0 **** 0.06
4178 H 2.7573791576046602 107.74628131410202 26.52056281972392 H 0.0 **** 0.06
4179 H 2.087605104253889 108.68975536942543 25.167206530344686 H 0.0 **** 0.06
4180 H 1.0330563486740703 107.59992919259673 26.099969426897786 H 0.0 **** 0.06
4181 C 6.37668282055404 56.92201463335033 110.23522142313627 C 0.0 **** -0.24
4182 H 6.036943121105432 56.82040096620125 111.26646244810874 H 0.0 **** 0.06
4183 H 7.119483019397336 57.718589609745294 110.17451996415488 H 0.0 **** 0.06
4184 H 5.528547218441016 57.16561855135561 109.5955336020123 H 0.0 **** 0.06
4185 H 6.822018048259489 55.98306151235519 109.90603762419309 H 0.0 **** 0.06
4186 C 16.642447707517135 15.130782087591456 48.22684723536404 C 0.0 **** -0.24
4187 H 16.804611732659794 14.702272007185087 47.23810495492214 H 0.0 **** 0.06
4188 H 15.900234807290929 15.92660902788721 48.161410974596734 H 0.0 **** 0.06
4189 H 17.58020080925496 15.538082902196749 48.60466538170544 H 0.0 **** 0.06
4190 H 16.284828167883518 14.355546015428231 48.904476695194724 H 0.0 **** 0.06
4191 C 90.93624397331459 41.38969802150885 20.295543402737362 C 0.0 **** -0.24
4192 H 89.97790663552382 41.37520885754137 19.776035920740746 H 0.0 **** 0.06
4193 H 91.18622564896273 40.38144303330213 20.62516805090837 H 0.0 **** 0.06
4194 H 90.86907866842267 42.049142580841846 21.161512889243063 H 0.0 **** 0.06
4195 H 91.70982868702342 41.755445465700035 19.620579056069786 H 0.0 **** 0.06
4196 C 110.14934421812649 6.205198759291207 104.52584460972977 C 0.0 **** -0.24
4197 H 109.88895379003594 7.113159288258146 103.98259710836501 H 0.0 **** 0.06
4198 H 109.96022018711443 6.35253645123332 105.59053670703389 H 0.0 **** 0.06
4199 H 111.2045278418322 5.9785777868476515 104.37242082899726 H 0.0 **** 0.06
4200 H 109.54240198407359 5.376453516919966 104.16104487379678 H 0.0 **** 0.06
4201 C 55.840713087685465 36.17914705245133 68.03597915607546 C 0.0 **** -0.24
4202 H 55.535780559778225 35.14061893285313 68.16530392656958 H 0.0 **** 0.06
4203 H 56.86535362715845 36.30258452015866 68.38783053486841 H 0.0 **** 0.06
4204 H 55.17813911995981 36.82703285114502 68.6094947137571 H 0.0 **** 0.06
4205 H 55.78460297681955 36.444436812392794 66.98015417092881 H 0.0 **** 0.06
4206 C 86.32721378466434 95.91629541185588 13.476749608405441 C 0.0 **** -0.24
4207 H 86.12649400436806 95.37250405299704 12.553239477992577 H 0.0 **** 0.06
4208 H 87.25446493254796 96.4809071304827 13.36992539372686 H 0.0 **** 0.06
4209 H 86.4241173414872 95.2103785383089 14.300378373639418 H 0.0 **** 0.06
4210 H 85.505432350489 96.60242215440044 13.68026060020415 H 0.0 **** 0.06
4211 C 36.849288455096485 72.73694997069887 82.6926449416793 C 0.0 **** -0.24
4212 H 37.38946292444052 72.90118546442213 81.7600975422342 H 0.0 **** 0.06
4213 H 37.17925137542619 73.4620557183583 83.43560350899176 H 0.0 **** 0.06
4214 H 37.04923731139036 71.72809386709463 83.05512703360762 H 0.0 **** 0.06
4215 H 35.77982514428703 72.85443862193156 82.51740498461851 H 0.0 **** 0.06
4216 C 102.55616652925644 94.35981576878785 91.63032400624886 C 0.0 **** -0.24
4217 H 101.84175969120918 94.4521519478028 90.81243570405914 H 0.0 **** 0.06
4218 H 103.06585081446897 95.31205771390117 91.77589383877148 H 0.0 **** 0.06
4219 H 103.28798533883963 93.58836405184843 91.38744140491144 H 0.0 **** 0.06
4220 H 102.02859648141265 94.0855940965958 92.5439200403491 H 0.0 **** 0.06
4221 C 95.62417419262778 0.2547165599810768 106.41024107631435 C 0.0 **** -0.24
4222 H 95.44846339559848 0.9436211881199768 105.5833392787483 H 0.0 **** 0.06
4223 H 95.413999605823 -0.7642285018565076 106.08442054153122 H 0.0 **** 0.06
4224 H 94.97080402302828 0.5127698845358992 107.24364211387137 H 0.0 **** 0.06
4225 H 96.66511767493645 0.328123628739462 106.7275288713358 H 0.0 **** 0.06
4226 C 22.252227683600523 1.9038181294643657 103.4352639725609 C 0.0 **** -0.24
4227 H 22.778113786134725 1.2588417404007606 104.13934185481475 H 0.0 **** 0.06
4228 H 21.251028492078916 1.5093754902237162 103.25910317997318 H 0.0 **** 0.06
4229 H 22.80173178007155 1.9371475846753512 102.49414611445161 H 0.0 **** 0.06
4230 H 22.179780592498076 2.909417711458799 103.84931261556534 H 0.0 **** 0.06
4231 C 108.78948565181709 28.20097938471531 96.18952210125775 C 0.0 **** -0.24
4232 H 109.3084546690584 28.721764261621615 95.38477265918664 H 0.0 **** 0.06
4233 H 107.78778805814056 28.616715966703055 96.3042804942884 H 0.0 **** 0.06
4234 H 109.34360155073965 28.327283319684966 97.12029454721494 H 0.0 **** 0.06
4235 H 108.71841857621925 27.14054903723104 95.94914261865264 H 0.0 **** 0.06
4236 C 101.90362655315252 92.4816121836455 60.23961975409355 C 0.0 **** -0.24
4237 H 101.27706422500498 91.83947094189168 59.62012746360321 H 0.0 **** 0.06
4238 H 101.43594918876369 92.61374398622559 61.21496555123477 H 0.0 **** 0.06
4239 H 102.01951651578838 93.45179850934238 59.75688340953167 H 0.0 **** 0.06
4240 H 102.88344287236586 92.01948440845209 60.366294050581104 H 0.0 **** 0.06
4241 C 71.29720608119896 2.436625085627412 28.67064206064218 C 0.0 **** -0.24
4242 H 72.28344124198713 2.2309323768600393 29.08671429706194 H 0.0 **** 0.06
4243 H 70.55446379655626 2.4127254881185536 29.46803035717175 H 0.0 **** 0.06
4244 H 71.05338418433189 1.680212745136572 27.924266366685586 H 0.0 **** 0.06
4245 H 71.29803008089772 3.4204785217860945 28.203200048935344 H 0.0 **** 0.06
4246 C 61.76055468810486 50.544644939912686 1.2577082725399862 C 0.0 **** -0.24
4247 H 61.02916331517409 51.02867116812421 0.6110015210841198 H 0.0 **** 0.06
4248 H 61.488578398028665 49.497468395395614 1.3938281730285098 H 0.0 **** 0.06
4249 H 61.77651866109022 51.04616985754947 2.2257988406755373 H 0.0 **** 0.06
4250 H 62.74818849978894 50.60766057845891 0.8003245159943617 H 0.0 **** 0.06
4251 C 45.2698594319126 21.77438870467798 29.921571184987123 C 0.0 **** -0.24
4252 H 45.73880991063376 22.1843552564983 29.027089064635312 H 0.0 **** 0.06
4253 H 45.70070865038067 20.797433878443872 30.14227833659281 H 0.0 **** 0.06
4254 H 44.197558537858036 21.669558741925577 29.75253883815182 H 0.0 **** 0.06
4255 H 45.440866684549974 22.44614899386486 30.762715654726996 H 0.0 **** 0.06
4256 C 1.2954557276033256 26.96650488792983 41.8652655157515 C 0.0 **** -0.24
4257 H 0.7421772459426279 26.73073191416063 42.77409959995779 H 0.0 **** 0.06
4258 H 1.1080203206115584 28.002717999178458 41.58440304730274 H 0.0 **** 0.06
4259 H 0.9701613761306476 26.30653992265337 41.05999890345248 H 0.0 **** 0.06
4260 H 2.3620834756894737 26.82501528377989 42.04179418915018 H 0.0 **** 0.06
4261 C 108.3266172195902 4.714328103619607 12.86247393927735 C 0.0 **** -0.24
4262 H 108.2118337522719 4.044075800120368 13.714610090568101 H 0.0 **** 0.06
4263 H 108.9691703026694 5.549214856658523 13.141018370930482 H 0.0 **** 0.06
4264 H 107.3492217429908 5.09170283941927 12.562496010093469 H 0.0 **** 0.06
4265 H 108.77632763469357 4.17108448662583 12.031086345729037 H 0.0 **** 0.06
4266 C 14.815883738365159 6.21371208294309 103.5409828281912 C 0.0 **** -0.24
4267 H 13.878126585565525 6.736253372515009 103.73030404427311 H 0.0 **** 0.06
4268 H 15.21707549908507 6.525090966816151 102.5756057767486 H 0.0 **** 0.06
4269 H 14.636491235825133 5.138188936473398 103.52928941416582 H 0.0 **** 0.06
4270 H 15.531577584458972 6.454067986503318 104.32664032317749 H 0.0 **** 0.06
4271 C 30.321727528212364 32.57143045121247 78.60746867969124 C 0.0 **** -0.24
4272 H 30.039091590548935 32.624503819420376 77.55568040129026 H 0.0 **** 0.06
4273 H 30.960101896378504 31.702199903737714 78.76841544512524 H 0.0 **** 0.06
4274 H 29.42551231448337 32.48434465760771 79.22086796638564 H 0.0 **** 0.06
4275 H 30.863685625413353 33.476597008164255 78.88314850881557 H 0.0 **** 0.06
4276 C 44.86259432498788 62.645657546061045 46.239398437239714 C 0.0 **** -0.24
4277 H 44.399037062415715 61.66666196666719 46.1181767212142 H 0.0 **** 0.06
4278 H 44.2688802735759 63.246000759769856 46.92873510396862 H 0.0 **** 0.06
4279 H 44.91257147374249 63.1453396024354 45.27173034183026 H 0.0 **** 0.06
4280 H 45.870263150359136 62.52402692224888 46.637727399522035 H 0.0 **** 0.06
4281 C 28.806902165785772 59.36071929291194 53.77622771335019 C 0.0 **** -0.24
4282 H 28.273445597925644 58.59844905438899 54.34480278239725 H 0.0 **** 0.06
4283 H 29.606476923996098 59.77743417116483 54.38990628504414 H 0.0 **** 0.06
4284 H 28.114145560562775 60.154172505366375 53.493914524833095 H 0.0 **** 0.06
4285 H 29.232083054748756 58.91335956668462 52.878181034876704 H 0.0 **** 0.06
4286 C 96.031211297536 101.23989407426538 110.30142216203511 C 0.0 **** -0.24
4287 H 96.83086501236653 101.57567359869654 110.96278176273157 H 0.0 **** 0.06
4288 H 95.56068571286704 102.10392710373716 109.83324491663186 H 0.0 **** 0.06
4289 H 95.28872369570416 100.69049745008493 110.88107460787165 H 0.0 **** 0.06
4290 H 96.44657601590853 100.5898100115171 109.53244351543093 H 0.0 **** 0.06
4291 C 93.84267597163159 112.2182816115174 18.729288235273543 C 0.0 **** -0.24
4292 H 94.83642078357784 112.06440477838714 19.14826613672605 H 0.0 **** 0.06
4293 H 93.11043470152356 112.25402600164824 19.535428053194096 H 0.0 **** 0.06
4294 H 93.60184201651512 111.39713159318745 18.054336363842026 H 0.0 **** 0.06
4295 H 93.8229651846037 113.15941140968141 18.178304870736042 H 0.0 **** 0.06
4296 C 10.672137157878907 45.43003916195255 9.006549470984467 C 0.0 **** -0.24
4297 H 11.377143373198923 45.90068388203041 8.321593157777741 H 0.0 **** 0.06
4298 H 9.834034629466103 45.021749449188434 8.441765395665854 H 0.0 **** 0.06
4299 H 10.30502446910194 46.17118650002473 9.716057223563382 H 0.0 **** 0.06
4300 H 11.172568295929597 44.62558839414666 9.547807418531278 H 0.0 **** 0.06
4301 C 88.6545355164507 74.03957759880609 66.43412968631327 C 0.0 **** -0.24
4302 H 89.37959852168916 74.84947375760515 66.51041994867359 H 0.0 **** 0.06
4303 H 88.97678665596649 73.33520182757579 65.66718290124464 H 0.0 **** 0.06
4304 H 87.67984787907218 74.44786261530217 66.16665117626894 H 0.0 **** 0.06
4305 H 88.58297351659292 73.52630980073403 67.39352089330163 H 0.0 **** 0.06
4306 C 83.69454429995301 95.78638535068617 58.122113308173056 C 0.0 **** -0.24
4307 H 84.64780881170779 96.30489982817275 58.222541748685416 H 0.0 **** 0.06
4308 H 82.93713277497031 96.48598435861015 57.76894566433123 H 0.0 **** 0.06
4309 H 83.39603950793963 95.38500330098344 59.09117150878791 H 0.0 **** 0.06
4310 H 83.79781882845947 94.97042343202048 57.40680434687911 H 0.0 **** 0.06
4311 C 20.342926837318856 2.3776253051315734 98.66145879966442 C 0.0 **** -0.24
4312 H 20.178978282011457 3.424550793369349 98.91732067591948 H 0.0 **** 0.06
4313 H 20.303467629665818 1.7719394030256694 99.5675581451192 H 0.0 **** 0.06
4314 H 21.320648517303965 2.266825928324181 98.19249589436018 H 0.0 **** 0.06
4315 H 19.56901405584867 2.046568685187424 97.96966847401296 H 0.0 **** 0.06
4316 C 107.40251764268609 38.925062659964816 25.85341270100045 C 0.0 **** -0.24
4317 H 108.15290613914135 38.82287170686194 26.63616834429871 H 0.0 **** 0.06
4318 H 107.86254481125229 38.741372719994644 24.882012448829045 H 0.0 **** 0.06
4319 H 106.9889585816596 39.933557920874875 25.875921137427497 H 0.0 **** 0.06
4320 H 106.60351158510909 38.20137096118906 26.0200174326082 H 0.0 **** 0.06
4321 C 71.32877027519893 84.95583233628315 33.76634014690316 C 0.0 **** -0.24
4322 H 70.7470068535892 85.87664831869856 33.79137160088149 H 0.0 **** 0.06
4323 H 70.96070673595108 84.31387296195575 32.96514924508122 H 0.0 **** 0.06
4324 H 71.23001247461909 84.4383029214901 34.72098963187861 H 0.0 **** 0.06
4325 H 72.37809403866132 85.19274336061204 33.58901212633123 H 0.0 **** 0.06
4326 C 19.49611837940631 92.42503627764654 10.4882853004097 C 0.0 **** -0.24
4327 H 18.847197553794885 92.0286547419052 9.707246352839036 H 0.0 **** 0.06
4328 H 19.050346047160843 92.23087530074162 11.464540395657451 H 0.0 **** 0.06
4329 H 19.616344912706893 93.4992566449958 10.350120405394549 H 0.0 **** 0.06
4330 H 20.471626422724995 91.94042394000707 10.431439722371223 H 0.0 **** 0.06
4331 C 64.2576504122004 36.22009763807404 63.63649850075462 C 0.0 **** -0.24
4332 H 65.02147861703364 35.871377986337734 62.941482337788976 H 0.0 **** 0.06
4333 H 64.27939141253182 35.608372824477044 64.53870108446787 H 0.0 **** 0.06
4334 H 63.27592888903661 36.141620536829464 63.167154591325435 H 0.0 **** 0.06
4335 H 64.45249927228619 37.26037969386863 63.89745168458345 H 0.0 **** 0.06
4336 C 83.13123386401065 24.65208702661596 55.30478034886201 C 0.0 **** -0.24
4337 H 83.52625816281659 25.008827692539143 56.25600234817262 H 0.0 **** 0.06
4338 H 83.0211475267655 23.567990675095672 55.34100909937463 H 0.0 **** 0.06
4339 H 83.81663698517019 24.92281450683174 54.502699625779 H 0.0 **** 0.06
4340 H 82.15900634013167 25.110234321440288 55.121676228338316 H 0.0 **** 0.06
4341 C 13.667294283660752 33.465674302628926 80.97980486795362 C 0.0 **** -0.24
4342 H 12.804799099574169 33.133397537673176 81.55766783260233 H 0.0 **** 0.06
4343 H 14.33521138989434 32.62090620354425 80.80823841181615 H 0.0 **** 0.06
4344 H 14.197294276442506 34.24234975814423 81.531363249003 H 0.0 **** 0.06
4345 H 13.331252355607376 33.863901626932204 80.02211533415968 H 0.0 **** 0.06
4346 C 70.29163538688891 111.94418520717566 107.38962766110375 C 0.0 **** -0.24
4347 H 69.29163713518159 111.53202490925568 107.52491542566416 H 0.0 **** 0.06
4348 H 70.84594460376539 111.86652121305362 108.32532046647209 H 0.0 **** 0.06
4349 H 70.21631724728513 112.99104502840717 107.09663441154335 H 0.0 **** 0.06
4350 H 70.81185063952654 111.38561325810696 106.61152878809378 H 0.0 **** 0.06
4351 C 72.1982973825101 104.19974789584003 20.951142519518076 C 0.0 **** -0.24
4352 H 71.53924430468612 103.33151491228509 20.935814953728883 H 0.0 **** 0.06
4353 H 73.23308434554872 103.86867037040022 21.032456361608205 H 0.0 **** 0.06
4354 H 71.94888812326482 104.82978304375905 21.80549149849823 H 0.0 **** 0.06
4355 H 72.06891702586566 104.76829423957136 20.02974346551926 H 0.0 **** 0.06
4356 C 56.28095525911596 102.93756666787016 25.97835997782809 C 0.0 **** -0.24
4357 H 57.02651405052198 102.30737488586533 26.46333606153044 H 0.0 **** 0.06
4358 H 56.45297784808968 102.93859952258146 24.901594634944132 H 0.0 **** 0.06
4359 H 56.36069417390918 103.95504119674135 26.36028096802582 H 0.0 **** 0.06
4360 H 55.28476402811045 102.54738763708926 26.18772512721486 H 0.0 **** 0.06
4361 C 37.32566220146717 19.485280735589555 96.31268758496921 C 0.0 **** -0.24
4362 H 36.30167697070053 19.42220928269728 95.94493004281702 H 0.0 **** 0.06
4363 H 37.356642950391915 20.13699807729057 97.18698856437098 H 0.0 **** 0.06
4364 H 37.967897997517895 19.892484173611365 95.5318214452771 H 0.0 **** 0.06
4365 H 37.67425053869087 18.490245384478186 96.58890344196521 H 0.0 **** 0.06
4366 C 42.49798540143729 16.540964945964504 97.0540197249781 C 0.0 **** -0.24
4367 H 41.74891687590584 16.208592906006913 97.77278085770195 H 0.0 **** 0.06
4368 H 42.830087723018195 17.54571829517772 97.31279389338988 H 0.0 **** 0.06
4369 H 42.06429217073005 16.547170009618696 96.05420771831518 H 0.0 **** 0.06
4370 H 43.34952992965386 15.85951326404637 97.07638083543083 H 0.0 **** 0.06
4371 C 58.5374980269234 88.5967357819006 43.87722844200903 C 0.0 **** -0.24
4372 H 59.28827323988861 87.95998856164906 43.40822204322468 H 0.0 **** 0.06
4373 H 59.007634761160546 89.51496895688871 44.22967374834546 H 0.0 **** 0.06
4374 H 58.09081748410165 88.06983183527842 44.720221974392345 H 0.0 **** 0.06
4375 H 57.76305692671036 88.84042761050245 43.149390060541066 H 0.0 **** 0.06
4376 C 108.50545261363803 17.02950942896277 5.370758136752968 C 0.0 **** -0.24
4377 H 108.02869774506019 16.068214801891372 5.562658712470778 H 0.0 **** 0.06
4378 H 107.74831630235445 17.81460817750832 5.359665580717419 H 0.0 **** 0.06
4379 H 109.01101357014159 16.997922412045455 4.405157899219503 H 0.0 **** 0.06
4380 H 109.23248449180744 17.236761198584787 6.155370580910343 H 0.0 **** 0.06
4381 C 101.53909964382825 23.30427306495585 100.86188719827598 C 0.0 **** -0.24
4382 H 102.42910515859757 23.578300587721003 101.42941918653898 H 0.0 **** 0.06
4383 H 101.00141431209744 24.207970358764356 100.57303578717688 H 0.0 **** 0.06
4384 H 100.89375890590537 22.679321235835715 101.47938614249583 H 0.0 **** 0.06
4385 H 101.83302747092506 22.753747782562016 99.96855819846351 H 0.0 **** 0.06
4386 C 71.88205861622146 90.64062660838354 55.138940288673155 C 0.0 **** -0.24
4387 H 71.60881136942442 89.66666519458062 54.73435107565777 H 0.0 **** 0.06
4388 H 70.98445538480041 91.15522871580549 55.483387032194 H 0.0 **** 0.06
4389 H 72.36539108909562 91.23394126738546 54.362072291158825 H 0.0 **** 0.06
4390 H 72.56845343950329 90.50826332004715 55.97446612316446 H 0.0 **** 0.06
4391 C 51.01114395495752 35.585584444999995 106.98128275935939 C 0.0 **** -0.24
4392 H 51.704593478913694 35.03173846118193 106.34882821864996 H 0.0 **** 0.06
4393 H 51.34284816791467 35.53235223167138 108.01845779961054 H 0.0 **** 0.06
4394 H 50.014972943276774 35.15115255138613 106.89542441528856 H 0.0 **** 0.06
4395 H 50.98185276702458 36.62759009007999 106.66078982283304 H 0.0 **** 0.06
4396 C 69.9957261194021 98.4814161667044 102.47426993314258 C 0.0 **** -0.24
4397 H 70.07877457739707 99.05596420816684 101.55137669596763 H 0.0 **** 0.06
4398 H 70.78311671731458 97.72694904525088 102.50374722040686 H 0.0 **** 0.06
4399 H 69.02242110565149 97.99216184611191 102.51109311366673 H 0.0 **** 0.06
4400 H 70.09974516642703 99.14922621311553 103.329185803283 H 0.0 **** 0.06
4401 C 47.843461209502834 98.68948621545192 25.457328434580745 C 0.0 **** -0.24
4402 H 48.140152690506795 99.41576294065698 26.214809615930882 H 0.0 **** 0.06
4403 H 47.406404584315965 97.81639544956889 25.942811144353456 H 0.0 **** 0.06
4404 H 48.71873298991238 98.38673609059987 24.88282077940838 H 0.0 **** 0.06
4405 H 47.109073265537745 99.14009000401151 24.790500194081723 H 0.0 **** 0.06
4406 C 60.245473875131246 53.89795782106444 42.34440650506541 C 0.0 **** -0.24
4407 H 60.83703366332147 54.377112380624204 41.56378472716912 H 0.0 **** 0.06
4408 H 59.47220861653931 53.28125215069573 41.88626204200364 H 0.0 **** 0.06
4409 H 59.77914196291851 54.66176373874001 42.96730015612201 H 0.0 **** 0.06
4410 H 60.89321842629453 53.27305543090817 42.958834987741795 H 0.0 **** 0.06
4411 C 2.727069059726702 77.54522638537216 98.37765285040729 C 0.0 **** -0.24
4412 H 3.2966501888690516 76.7420931294327 98.8442529434738 H 0.0 **** 0.06
4413 H 3.3032533006619644 78.46938407164436 98.41618399651935 H 0.0 **** 0.06
4414 H 1.7855830782967388 77.68051917341487 98.9110396334375 H 0.0 **** 0.06
4415 H 2.520885229561742 77.28825859517289 97.33816007570306 H 0.0 **** 0.06
4416 C 46.802834725895394 66.20032717877757 44.52308114830123 C 0.0 **** -0.24
4417 H 45.78805557744175 66.04504609242775 44.89143225405451 H 0.0 **** 0.06
4418 H 47.1261539077459 67.21242966175214 44.767487960277606 H 0.0 **** 0.06
4419 H 46.821859711220185 66.06182533257913 43.44287534334438 H 0.0 **** 0.06
4420 H 47.47339185468192 65.48110394414903 44.9943576256905 H 0.0 **** 0.06
4421 C 110.62178764398183 20.625176631174572 19.829999840638273 C 0.0 **** -0.24
4422 H 111.50855142584041 20.01527947934229 19.653948944465693 H 0.0 **** 0.06
4423 H 110.52649794422976 20.826466820321688 20.897478917572137 H 0.0 **** 0.06
4424 H 109.73855263984149 20.091701313125668 19.4808948198831 H 0.0 **** 0.06
4425 H 110.71629339490889 21.567167588550465 19.288884192497626 H 0.0 **** 0.06
4426 C 53.78397005615601 50.08489344694789 57.240395174244 C 0.0 **** -0.24
4427 H 53.45285271218044 50.56289575043115 58.162397613707746 H 0.0 **** 0.06
4428 H 54.37957970221159 50.79080433472342 56.66000869934745 H 0.0 **** 0.06
4429 H 52.914432115461736 49.778229878919745 56.65790252098177 H 0.0 **** 0.06
4430 H 54.38702411175434 49.209772470564104 57.48056265901652 H 0.0 **** 0.06
4431 C 2.65866461885895 8.050873936168557 46.2235387920217 C 0.0 **** -0.24
4432 H 2.5515026535884218 7.396683926389954 45.358295396468364 H 0.0 **** 0.06
4433 H 2.958627994772584 7.460751095979504 47.08905964883678 H 0.0 **** 0.06
4434 H 1.7069566146568071 8.53961206061311 46.42852471047814 H 0.0 **** 0.06
4435 H 3.4177942002371875 8.805495818390426 46.016264778151324 H 0.0 **** 0.06
4436 C 85.20492551016477 83.38976328787388 67.77634836654684 C 0.0 **** -0.24
4437 H 84.74214214477453 83.46713087688289 68.76002269461281 H 0.0 **** 0.06
4438 H 84.97746211718047 82.41530004621202 67.34312990444133 H 0.0 **** 0.06
4439 H 86.28546238081415 83.50134728811705 67.87417758328195 H 0.0 **** 0.06
4440 H 84.81632342555423 84.17559815597559 67.12908618224029 H 0.0 **** 0.06
4441 C 91.44296743088893 79.59353458726144 32.44088300402399 C 0.0 **** -0.24
4442 H 91.05925582968655 80.57190894471239 32.150446344317544 H 0.0 **** 0.06
4443 H 92.52810011059597 79.58486710227635 32.33765345453904 H 0.0 **** 0.06
4444 H 91.00875887084024 78.82789560973652 31.798081119582292 H 0.0 **** 0.06
4445 H 91.17539116017969 79.39223494260426 33.47844881582532 H 0.0 **** 0.06
4446 C 39.083444351524676 62.28016098048238 11.898394881723192 C 0.0 **** -0.24
4447 H 39.09774935018655 62.50692105062018 10.83300361706484 H 0.0 **** 0.06
4448 H 40.106036891004905 62.217939285890054 12.270694965932957 H 0.0 **** 0.06
4449 H 38.579572620674114 61.326776281207856 12.05963794333211 H 0.0 **** 0.06
4450 H 38.55019859343704 63.068104656768185 12.430613008622238 H 0.0 **** 0.06
4451 C 107.59763664510925 43.890710100115115 105.1953029122044 C 0.0 **** -0.24
4452 H 108.12004123547949 44.842846259925466 105.09849584243085 H 0.0 **** 0.06
4453 H 107.0671760092754 43.863504039784914 106.14736633414228 H 0.0 **** 0.06
4454 H 108.32058823316177 43.07516217863329 105.157619482037 H 0.0 **** 0.06
4455 H 106.88559137153005 43.78302315979727 104.37767745698261 H 0.0 **** 0.06
4456 C 18.795684532960223 1.6569301495026139 108.97495928410962 C 0.0 **** -0.24
4457 H 18.850374107353446 2.741855177795699 109.06222381594179 H 0.0 **** 0.06
4458 H 19.595225890607225 1.304950325072042 108.3220792917795 H 0.0 **** 0.06
4459 H 17.831042167361687 1.375048053670156 108.55265016324005 H 0.0 **** 0.06
4460 H 18.906552469377488 1.2071057943804675 109.96176258650047 H 0.0 **** 0.06
4461 C 96.5576834666212 20.979322408185766 83.11895951078296 C 0.0 **** -0.24
4462 H 97.23913387648685 21.682108949957012 82.64088343555073 H 0.0 **** 0.06
4463 H 95.57978250244463 21.445911571453166 83.24091725013028 H 0.0 **** 0.06
4464 H 96.95080140461002 20.699023733857103 84.0966610916065 H 0.0 **** 0.06
4465 H 96.46052779691803 20.087905205380224 82.49888809424422 H 0.0 **** 0.06
4466 C 75.01901571816882 107.02483505934238 10.439143320221604 C 0.0 **** -0.24
4467 H 75.17136011318729 106.21313137744164 11.151732126738224 H 0.0 **** 0.06
4468 H 75.117571978807 107.98101651227452 10.953012058035839 H 0.0 **** 0.06
4469 H 74.02328694818135 106.94597907893336 10.005000220186872 H 0.0 **** 0.06
4470 H 75.76674975021348 106.9576941041559 9.64863125640629 H 0.0 **** 0.06
4471 C 32.93295373345177 98.51657737585509 15.175570310290098 C 0.0 **** -0.24
4472 H 33.870957213265 99.02707137830686 15.393741647168724 H 0.0 **** 0.06
4473 H 32.09663768963344 99.1487637690866 15.475098720312843 H 0.0 **** 0.06
4474 H 32.8942039611689 97.57703486574559 15.726815008321836 H 0.0 **** 0.06
4475 H 32.87023631349314 98.31248396130792 14.106429616042647 H 0.0 **** 0.06
4476 C 46.97807476553942 9.025934874694242 73.17993917675611 C 0.0 **** -0.24
4477 H 47.91192924932409 8.733988359974928 73.66046017721175 H 0.0 **** 0.06
4478 H 46.142479331467996 8.543414766741272 73.68759658392969 H 0.0 **** 0.06
4479 H 46.99588337389207 8.71815328694555 72.13508193195031 H 0.0 **** 0.06
4480 H 46.8633653245717 10.10864176069174 73.23833415688912 H 0.0 **** 0.06
4481 C 99.24278633891984 55.41078891722606 36.2265721075737 C 0.0 **** -0.24
4482 H 99.65111324263947 56.39533008156309 35.99947037227001 H 0.0 **** 0.06
4483 H 98.16710625096954 55.49176331262271 36.386218415839764 H 0.0 **** 0.06
4484 H 99.71582570043017 55.020648989593525 37.12815184881126 H 0.0 **** 0.06
4485 H 99.4367812035876 54.73551904806911 35.39338967271007 H 0.0 **** 0.06
4486 C 27.64680239305966 64.51022079189079 87.73581304486152 C 0.0 **** -0.24
4487 H 27.38050348613274 64.8329941783594 86.7290287296006 H 0.0 **** 0.06
4488 H 28.64305870068364 64.0669381366838 87.723191308011 H 0.0 **** 0.06
4489 H 26.924145466187383 63.77136096387392 88.0832875830626 H 0.0 **** 0.06
4490 H 27.638755900164966 65.3691061446151 88.40625808057484 H 0.0 **** 0.06
4491 C 15.205851774408131 67.79610876515068 3.0765955523165474 C 0.0 **** -0.24
4492 H 14.293836084378 67.94636260749533 2.4987196449612554 H 0.0 **** 0.06
4493 H 15.889337815780692 67.15793569617915 2.5146849973547205 H 0.0 **** 0.06
4494 H 14.960246277098435 67.32001416539589 4.024969510723025 H 0.0 **** 0.06
4495 H 15.678824668105818 68.7594692478522 3.26451190036272 H 0.0 **** 0.06
4496 C 53.69090381807619 72.6898862929643 37.77459997271136 C 0.0 **** -0.24
4497 H 53.33646753979754 73.71448544787296 37.8882393132227 H 0.0 **** 0.06
4498 H 53.58257465256804 72.38152597497799 36.734445112967364 H 0.0 **** 0.06
4499 H 53.1028660486809 72.03030965655617 38.41326394326114 H 0.0 **** 0.06
4500 H 54.74071673921279 72.63414561876971 38.062864103936704 H 0.0 **** 0.06
4501 C 31.573590168197512 29.290970044065233 11.988478673190002 C 0.0 **** -0.24
4502 H 31.24428112874864 28.253701461670857 12.058033665444668 H 0.0 **** 0.06
4503 H 32.65366828522721 29.338775061031782 12.124912888839617 H 0.0 **** 0.06
4504 H 31.082485355900616 29.879319551409566 12.763819457854936 H 0.0 **** 0.06
4505 H 31.31226226717044 29.68999757810849 11.008845530873657 H 0.0 **** 0.06
4506 C 106.07509305704559 91.67737721709665 80.70495817297933 C 0.0 **** -0.24
4507 H 105.64742383899798 92.37652429054344 81.42296287373836 H 0.0 **** 0.06
4508 H 105.91746569715244 90.65639745822051 81.0542709311834 H 0.0 **** 0.06
4509 H 107.14307989897098 91.86707348979388 80.60469982713411 H 0.0 **** 0.06
4510 H 105.59025129433965 91.80900639653339 79.73756134510796 H 0.0 **** 0.06
4511 C 107.12155151668189 105.58828419283432 77.23767062183299 C 0.0 **** -0.24
4512 H 106.15232714562754 105.92346745751905 76.86972275577847 H 0.0 **** 0.06
4513 H 107.8987102672057 106.26469745960424 76.88124140832241 H 0.0 **** 0.06
4514 H 107.320711151606 104.58058826484708 76.87113846319102 H 0.0 **** 0.06
4515 H 107.11457237594763 105.58324643806151 78.32774691082278 H 0.0 **** 0.06
4516 C 73.33052589373341 61.32652921435864 43.49311375700432 C 0.0 **** -0.24
4517 H 72.46346020893736 61.21974561090155 44.1449655428986 H 0.0 **** 0.06
4518 H 74.0640848896114 60.558681017354495 43.7357176480005 H 0.0 **** 0.06
4519 H 73.77397798557197 62.31228884964643 43.637563186772525 H 0.0 **** 0.06
4520 H 73.01952214025818 61.217593473200786 42.45448243820999 H 0.0 **** 0.06
4521 C 82.67881776011399 17.923137372413432 51.82567458004715 C 0.0 **** -0.24
4522 H 83.05069785476329 18.33433336431961 52.76431053654921 H 0.0 **** 0.06
4523 H 83.50590060129599 17.4820576785337 51.268963620717315 H 0.0 **** 0.06
4524 H 82.22539491296797 18.71887510922351 51.2352937517883 H 0.0 **** 0.06
4525 H 81.9324952025355 17.15643992395004 52.036292987428055 H 0.0 **** 0.06
4526 C 14.396143430812856 40.492791256311165 30.863951714432368 C 0.0 **** -0.24
4527 H 14.475924720112516 41.55731845727749 31.084492369931596 H 0.0 **** 0.06
4528 H 13.992980570590987 40.35900844895147 29.860253929326966 H 0.0 **** 0.06
4529 H 13.733024133846925 40.021014107808526 31.588206806644287 H 0.0 **** 0.06
4530 H 15.383652091783404 40.034735332466255 30.923246129340185 H 0.0 **** 0.06
4531 C 93.58480684761093 9.32849429351677 7.364884169077612 C 0.0 **** -0.24
4532 H 93.73375106243395 8.470167137627016 8.01963410298417 H 0.0 **** 0.06
4533 H 93.40655642801005 10.218952211604034 7.967864171584978 H 0.0 **** 0.06
4534 H 92.72590519849928 9.148971840028551 6.718984037294618 H 0.0 **** 0.06
4535 H 94.4749965334828 9.47595914150125 6.752021275045308 H 0.0 **** 0.06
4536 C 58.9671554586991 20.790103001466917 26.500799646449366 C 0.0 **** -0.24
4537 H 58.80846567366629 20.87384124003232 27.576454755253394 H 0.0 **** 0.06
4538 H 59.53876374070589 19.88590377359465 26.287660699123677 H 0.0 **** 0.06
4539 H 59.51717032852292 21.661281662169145 26.14565355656279 H 0.0 **** 0.06
4540 H 58.00242657907697 20.738137060978744 25.995223568101338 H 0.0 **** 0.06
4541 C 20.72757646494631 111.03478497142112 38.827556995974646 C 0.0 **** -0.24
4542 H 21.676632012271853 111.01951499604672 39.363607176690834 H 0.0 **** 0.06
4543 H 20.133878252945124 111.88417180641284 39.16503708688856 H 0.0 **** 0.06
4544 H 20.18464912665064 110.11033939174558 39.023981680617396 H 0.0 **** 0.06
4545 H 20.91612726501063 111.1250318314892 37.757779219630436 H 0.0 **** 0.06
4546 C 66.83292404093402 67.88857905935362 12.752051553554935 C 0.0 **** -0.24
4547 H 67.14520405149051 68.2019905673215 11.755521648366951 H 0.0 **** 0.06
4548 H 65.74593651687508 67.82147193147188 12.787647913094247 H 0.0 **** 0.06
4549 H 67.17677310997442 68.61716002800443 13.486091039356992 H 0.0 **** 0.06
4550 H 67.265595664626 66.91382581483509 12.977643609878513 H 0.0 **** 0.06
4551 C 26.692615254336317 66.29044314117948 83.86464740586558 C 0.0 **** -0.24
4552 H 25.948822953767973 65.50398310589418 83.73892157291866 H 0.0 **** 0.06
4553 H 26.193551930565434 67.22162519480986 84.13596321173779 H 0.0 **** 0.06
4554 H 27.236335646233385 66.42910787587988 82.92974919674967 H 0.0 **** 0.06
4555 H 27.390704033468722 66.00895427711777 84.65340497292274 H 0.0 **** 0.06
4556 C 46.14926317633342 38.87858446753768 70.44743964908176 C 0.0 **** -0.24
4557 H 46.52745392294554 38.41750779648538 69.53458834765621 H 0.0 **** 0.06
4558 H 45.408939807653496 38.222302641783415 70.90488566907439 H 0.0 **** 0.06
4559 H 45.68867946598101 39.83606596594478 70.20584666749545 H 0.0 **** 0.06
4560 H 46.974353789630925 39.037005343755425 71.14193925393289 H 0.0 **** 0.06
4561 C 100.86705878978603 79.38340763469822 89.51799684546671 C 0.0 **** -0.24
4562 H 100.07076386977494 79.78540826104327 88.89105320914655 H 0.0 **** 0.06
4563 H 101.30032382935005 80.18716716623888 90.11367162043393 H 0.0 **** 0.06
4564 H 101.63833847078365 78.94203219277856 88.88664846855664 H 0.0 **** 0.06
4565 H 100.4572248861036 78.62054751872611 90.1802060448289 H 0.0 **** 0.06
4566 C 65.04756520625278 0.8871215078101677 86.35245578347099 C 0.0 **** -0.24
4567 H 64.66177883267187 0.680459216862543 85.35460162929849 H 0.0 **** 0.06
4568 H 64.2582062140828 1.329883091706062 86.96120124868818 H 0.0 **** 0.06
4569 H 65.88519188278846 1.5806260576222053 86.28209708350406 H 0.0 **** 0.06
4570 H 65.38289065922447 -0.04258443755408692 86.81149941130894 H 0.0 **** 0.06
4571 C 29.442899588678614 28.546890336887202 49.56870222033638 C 0.0 **** -0.24
4572 H 28.779939084330465 28.274180695931705 48.74782878951248 H 0.0 **** 0.06
4573 H 29.217167831759753 27.927611381767008 50.43767415475125 H 0.0 **** 0.06
4574 H 29.294609178583272 29.596272138707377 49.822018496850006 H 0.0 **** 0.06
4575 H 30.478540561180722 28.387496812132667 49.26684144878715 H 0.0 **** 0.06
4576 C 59.34483234658229 26.70809656695178 62.28669427674595 C 0.0 **** -0.24
4577 H 59.330017884072895 25.623224615644403 62.18530032471193 H 0.0 **** 0.06
4578 H 58.38735873937225 27.050109783924313 62.67989734634074 H 0.0 **** 0.06
4579 H 59.51941471949245 27.16101437133591 61.310780426735334 H 0.0 **** 0.06
4580 H 60.14286506379914 26.997980841793947 62.96942425056301 H 0.0 **** 0.06
4581 C 9.48467560095412 26.947992168454107 73.4875227363953 C 0.0 **** -0.24
4582 H 9.415885696488388 26.205051732869265 72.69359151362991 H 0.0 **** 0.06
4583 H 10.26707824794309 26.656767360966512 74.18967635633629 H 0.0 **** 0.06
4584 H 8.530814208331535 27.00913363172458 74.01179992921442 H 0.0 **** 0.06
4585 H 9.72613406388892 27.919863640279175 73.05612258540509 H 0.0 **** 0.06
4586 C 102.42791960101476 82.10299766502203 106.16613791787523 C 0.0 **** -0.24
4587 H 102.0597492576178 82.27777813697412 107.17669654088802 H 0.0 **** 0.06
4588 H 103.12400332587919 81.26377094565703 106.17428631919324 H 0.0 **** 0.06
4589 H 102.93930853236608 82.99634787776336 105.80586549180643 H 0.0 **** 0.06
4590 H 101.5902865719334 81.87375579707742 105.50875190939013 H 0.0 **** 0.06
4591 C 13.638007078482559 5.867093205873459 0.8132360296051786 C 0.0 **** -0.24
4592 H 12.56402283652153 6.045820094303821 0.7586196203786244 H 0.0 **** 0.06
4593 H 13.850849514339359 5.186669223691638 1.6370531370337176 H 0.0 **** 0.06
4594 H 14.15465545038414 6.8130092008207725 0.9789702730718091 H 0.0 **** 0.06
4595 H 13.980503227319161 5.424935480179613 -0.12257236339522137 H 0.0 **** 0.06
4596 C 45.855078480762984 14.157730068741444 63.70620769796648 C 0.0 **** -0.24
4597 H 45.61603545349456 14.041442711585091 62.6492403111742 H 0.0 **** 0.06
4598 H 46.814562827559115 14.664529895011754 63.808203287376045 H 0.0 **** 0.06
4599 H 45.91089771926269 13.17585328685118 64.17613810081849 H 0.0 **** 0.06
4600 H 45.078086868249045 14.748658102365027 64.19072442444764 H 0.0 **** 0.06
4601 C 106.2975669102517 29.925268063640658 91.22931205207882 C 0.0 **** -0.24
4602 H 106.14725549612501 29.24032509742176 90.39470974391335 H 0.0 **** 0.06
4603 H 105.48921702206621 29.801088311580543 91.95033651251052 H 0.0 **** 0.06
4604 H 106.3011506946828 30.95117092570746 90.86093877852733 H 0.0 **** 0.06
4605 H 107.25039846729806 29.708753486620736 91.71032217678405 H 0.0 **** 0.06
4606 C 101.65567523213772 73.43040330058511 41.674680923078554 C 0.0 **** -0.24
4607 H 101.86691106186487 72.99363623745865 42.651181508834696 H 0.0 **** 0.06
4608 H 101.61978563007088 72.64198502480235 40.92335881679459 H 0.0 **** 0.06
4609 H 102.44031468741187 74.14224146786086 41.41883580772938 H 0.0 **** 0.06
4610 H 100.69503639580222 73.94528140069639 41.70838570465881 H 0.0 **** 0.06
4611 C 33.81679537965522 28.479724857365596 36.88040219532735 C 0.0 **** -0.24
4612 H 33.564767102237795 28.568254855315246 37.93709636507282 H 0.0 **** 0.06
4613 H 34.47127100184048 27.619700322321734 36.734180034899964 H 0.0 **** 0.06
4614 H 34.32743627986855 29.385585112747435 36.55267136848494 H 0.0 **** 0.06
4615 H 32.90511191224789 28.346088205130968 36.2995306125415 H 0.0 **** 0.06
4616 C 90.58304623282123 56.80311529503344 71.635974782521 C 0.0 **** -0.24
4617 H 89.77779078759153 56.89977421024077 72.36406069750439 H 0.0 **** 0.06
4618 H 90.20704972213704 57.05841510459567 70.64465138054197 H 0.0 **** 0.06
4619 H 90.94828235481725 55.77706674792137 71.63391695292506 H 0.0 **** 0.06
4620 H 91.39630667327651 57.478331756318624 71.90164292892783 H 0.0 **** 0.06
4621 C 28.693500668299663 79.36064392901596 65.72257927831998 C 0.0 **** -0.24
4622 H 27.63740160791562 79.4236739102073 65.98442345570709 H 0.0 **** 0.06
4623 H 28.792268770273367 79.19254712362624 64.64929049092854 H 0.0 **** 0.06
4624 H 29.15382007719009 78.53436856080123 66.26470147039922 H 0.0 **** 0.06
4625 H 29.190048366710016 80.29330372284983 65.99168060329728 H 0.0 **** 0.06
4626 C 81.18218485864557 85.45859655982781 79.56621955901596 C 0.0 **** -0.24
4627 H 82.19850937421546 85.11662508329164 79.37037169854602 H 0.0 **** 0.06
4628 H 81.09985335561944 86.51629890735123 79.31102590492583 H 0.0 **** 0.06
4629 H 80.94831623312734 85.32039200118044 80.62175892232563 H 0.0 **** 0.06
4630 H 80.48221594826151 84.8824949050844 78.96000518430816 H 0.0 **** 0.06
4631 C 59.66022344412729 21.30871742125862 103.25173992511796 C 0.0 **** -0.24
4632 H 60.123771451407386 22.184120954002253 103.70833753737972 H 0.0 **** 0.06
4633 H 58.764898458796814 21.614130681541155 102.71008107421079 H 0.0 **** 0.06
4634 H 59.389808199168705 20.59421603764804 104.02875454358286 H 0.0 **** 0.06
4635 H 60.36311092339303 20.845251036692048 102.56041914838076 H 0.0 **** 0.06
4636 C 29.621578170233107 21.419861361202976 18.20173077069515 C 0.0 **** -0.24
4637 H 30.050654936652222 20.923861306229668 19.072388836428416 H 0.0 **** 0.06
4638 H 28.545443763569295 21.524292308026403 18.33703139537701 H 0.0 **** 0.06
4639 H 29.820200949939988 20.82559609865058 17.310249343163065 H 0.0 **** 0.06
4640 H 30.07161708707403 22.405798803976424 18.08789891442521 H 0.0 **** 0.06
4641 C 40.63737069823148 7.5612846629883705 106.9607842901881 C 0.0 **** -0.24
4642 H 41.70582925730292 7.3679126434420255 107.06450050373056 H 0.0 **** 0.06
4643 H 40.33855679775806 7.398725488404182 105.92522253085343 H 0.0 **** 0.06
4644 H 40.426925296520864 8.592502899406895 107.24250048156038 H 0.0 **** 0.06
4645 H 40.08191013811904 6.885880837205761 107.61101009237339 H 0.0 **** 0.06
4646 C 60.18936965423939 79.24612985349435 53.07017004700555 C 0.0 **** -0.24
4647 H 59.62728514598748 79.32964711345483 52.13990004603386 H 0.0 **** 0.06
4648 H 60.263207605583226 78.19749651209841 53.35763211436296 H 0.0 **** 0.06
4649 H 59.676479318961604 79.80360667801193 53.85496592923988 H 0.0 **** 0.06
4650 H 61.189230207738895 79.65648147911455 52.928061574134404 H 0.0 **** 0.06
4651 C 20.92336246366159 77.27601987033071 60.41858035834474 C 0.0 **** -0.24
4652 H 20.54180739760382 77.54240469100264 61.40462411482977 H 0.0 **** 0.06
4653 H 20.12719746066368 76.81283322754811 59.83459072752606 H 0.0 **** 0.06
4654 H 21.750304147747443 76.5735926102985 60.52745111276576 H 0.0 **** 0.06
4655 H 21.27259834384435 78.17315175103386 59.90945074769101 H 0.0 **** 0.06
4656 C 109.41586919439294 63.062772945841026 50.68464203618163 C 0.0 **** -0.24
4657 H 110.07049537432678 62.68250290991313 51.468613741132806 H 0.0 **** 0.06
4658 H 108.89055890008083 62.23072015563219 50.21455831672258 H 0.0 **** 0.06
4659 H 110.01173025633639 63.586578426779944 49.936028049160264 H 0.0 **** 0.06
4660 H 108.69090731896344 63.752022958513344 51.11817763618403 H 0.0 **** 0.06
4661 C 66.71230913566646 56.43661230794925 91.58716192323953 C 0.0 **** -0.24
4662 H 67.40645369267534 56.86580640848035 92.30910173991538 H 0.0 **** 0.06
4663 H 65.69707810911109 56.492682444853585 91.98195754487756 H 0.0 **** 0.06
4664 H 66.9749240536681 55.394881875851695 91.40600056369743 H 0.0 **** 0.06
4665 H 66.76975847779059 56.994526807650175 90.65295084998291 H 0.0 **** 0.06
4666 C 50.741112308569285 21.758894389620263 1.0965210787543214 C 0.0 **** -0.24
4667 H 49.884912484819324 22.23929186197534 1.5697498851638727 H 0.0 **** 0.06
4668 H 51.49951694378649 21.543156297589775 1.8500328264563137 H 0.0 **** 0.06
4669 H 51.159185557881244 22.42408894324611 0.3408549057885466 H 0.0 **** 0.06
4670 H 50.4218901734078 20.828699326979912 0.6263234904878914 H 0.0 **** 0.06
4671 C 62.66750751099386 30.424975104758943 31.0095754425663 C 0.0 **** -0.24
4672 H 63.38119656382929 30.828845993422505 31.726550017349837 H 0.0 **** 0.06
4673 H 63.20404828501938 29.90044638614978 30.218872579676372 H 0.0 **** 0.06
4674 H 62.086313899974925 31.239465796584568 30.577444352849056 H 0.0 **** 0.06
4675 H 61.99687198553238 29.730024173437215 31.516526797075954 H 0.0 **** 0.06
4676 C 57.704944851510255 27.029290098296087 90.93267436458083 C 0.0 **** -0.24
4677 H 58.01866811991044 27.65389239208207 90.09714878569932 H 0.0 **** 0.06
4678 H 58.57142638538749 26.77897582276603 91.54459338920742 H 0.0 **** 0.06
4679 H 57.251784845923815 26.11395036518013 90.55256313301999 H 0.0 **** 0.06
4680 H 56.97648760135191 27.57026541409749 91.53739180461554 H 0.0 **** 0.06
4681 C 63.92184833632953 59.19391644239729 97.52453828713237 C 0.0 **** -0.24
4682 H 64.71191013468984 59.04952306508836 98.26150931850685 H 0.0 **** 0.06
4683 H 62.97614290471037 58.83147602691249 97.92957491076231 H 0.0 **** 0.06
4684 H 64.16565634031224 58.64054777425839 96.61786682409263 H 0.0 **** 0.06
4685 H 63.83441909398192 60.254837135426634 97.29017361067105 H 0.0 **** 0.06
4686 C 97.11582771864951 103.02448455345717 69.69318892839408 C 0.0 **** -0.24
4687 H 96.31596276009202 102.48470644859498 69.18671483210818 H 0.0 **** 0.06
4688 H 97.3043361634198 103.9649242228979 69.1742628749129 H 0.0 **** 0.06
4689 H 98.02258699958799 102.41829379401167 69.68840875579349 H 0.0 **** 0.06
4690 H 96.82199089436656 103.2288957177878 70.7222299025828 H 0.0 **** 0.06
4691 C 81.98034170954864 66.41641226145583 63.23417050227635 C 0.0 **** -0.24
4692 H 81.0076662931948 65.99744489110827 63.492628013995805 H 0.0 **** 0.06
4693 H 82.66988125481555 66.27256749460483 64.06617368995794 H 0.0 **** 0.06
4694 H 81.8744190834164 67.48110109936496 63.028786956561255 H 0.0 **** 0.06
4695 H 82.36905185321484 65.91236082175132 62.34870676906461 H 0.0 **** 0.06
4696 C 56.00696814009936 33.997755703324856 2.2026913314563217 C 0.0 **** -0.24
4697 H 56.15019344362091 34.671736207961885 1.3577480108930615 H 0.0 **** 0.06
4698 H 55.23484886400732 34.39919171233407 2.8596779309821443 H 0.0 **** 0.06
4699 H 56.94180631877461 33.903401762739804 2.7540634666535766 H 0.0 **** 0.06
4700 H 55.69974020570203 33.01770122783515 1.8363886339853082 H 0.0 **** 0.06
4701 C 59.47010800779097 6.861270943995521 76.76429928129681 C 0.0 **** -0.24
4702 H 59.775937692887425 6.887887760493527 75.71838334637908 H 0.0 **** 0.06
4703 H 58.943369010667624 5.927785525800971 76.96387990527506 H 0.0 **** 0.06
4704 H 58.808861649604154 7.703146124873712 76.9716465114293 H 0.0 **** 0.06
4705 H 60.35175017246806 6.925147011294314 77.40206752467725 H 0.0 **** 0.06
4706 C 11.881383991431083 34.5436001709659 35.65085919007392 C 0.0 **** -0.24
4707 H 11.650749247421363 33.51751259145834 35.364815014262625 H 0.0 **** 0.06
4708 H 12.958496732145985 34.6498040175897 35.782913425485326 H 0.0 **** 0.06
4709 H 11.374303323576708 34.7823318772237 36.585893829033 H 0.0 **** 0.06
4710 H 11.541736698285934 35.22339673063763 34.86949772561661 H 0.0 **** 0.06
4711 C 12.830451258918458 25.801400698681498 54.70893561916586 C 0.0 **** -0.24
4712 H 13.438826896476371 24.897285445984643 54.71254841666587 H 0.0 **** 0.06
4713 H 12.853439457197965 26.251692707638185 53.716882191801005 H 0.0 **** 0.06
4714 H 13.226641203895383 26.508278433992814 55.438343472968825 H 0.0 **** 0.06
4715 H 11.802387812081747 25.54849286549296 54.97035985340301 H 0.0 **** 0.06
4716 C 14.943226658418979 97.17305233576596 18.21283860440181 C 0.0 **** -0.24
4717 H 15.979371685065985 97.41208241532516 18.45126147397997 H 0.0 **** 0.06
4718 H 14.468754715870503 98.03701411847138 17.746450505903084 H 0.0 **** 0.06
4719 H 14.41048738681603 96.91526680788107 19.12881291966704 H 0.0 **** 0.06
4720 H 14.91412703826306 96.32797916421214 17.525806673216493 H 0.0 **** 0.06
4721 C 79.69647247291701 1.1357856482790112 69.42583804565413 C 0.0 **** -0.24
4722 H 79.99246843158397 1.144724502927204 68.37722380167139 H 0.0 **** 0.06
4723 H 79.5280966639107 2.1588385887914967 69.76464883758513 H 0.0 **** 0.06
4724 H 80.48602427625954 0.6801452271658661 70.02232783796319 H 0.0 **** 0.06
4725 H 78.7770372712159 0.5603265988248722 69.53886569404816 H 0.0 **** 0.06
4726 C 50.74154333975474 31.311238806019958 24.3386142934664 C 0.0 **** -0.24
4727 H 50.40425524039671 31.196085534546484 23.309047981377034 H 0.0 **** 0.06
4728 H 51.829529962433924 31.250179264975685 24.372940092146525 H 0.0 **** 0.06
4729 H 50.314180438182404 30.51774090478122 24.952090821781173 H 0.0 **** 0.06
4730 H 50.419156528335634 32.27993098116883 24.720628181563633 H 0.0 **** 0.06
4731 C 11.169801161007513 25.32918456067091 86.21598066113347 C 0.0 **** -0.24
4732 H 11.256553224780959 26.30732406225181 86.68835926576864 H 0.0 **** 0.06
4733 H 10.125403512626832 25.017144630715137 86.21614109609342 H 0.0 **** 0.06
4734 H 11.766833937335264 24.604596988210346 86.76969006294246 H 0.0 **** 0.06
4735 H 11.531213613263276 25.388937731672826 85.18886039168868 H 0.0 **** 0.06
4736 C 61.1494246217234 80.08980374403859 96.54191839711535 C 0.0 **** -0.24
4737 H 62.1410003848473 80.50564088335074 96.72132403283246 H 0.0 **** 0.06
4738 H 61.05400408584708 79.13844538269413 97.06717708743477 H 0.0 **** 0.06
4739 H 61.01064722902447 79.93035839925693 95.47262170976347 H 0.0 **** 0.06
4740 H 60.39308603358296 80.78449544187123 96.9074697401465 H 0.0 **** 0.06
4741 C 2.5268030139448143 87.71039249159219 9.844691133817555 C 0.0 **** -0.24
4742 H 1.9072364400047945 87.82713126907484 8.956112691027135 H 0.0 **** 0.06
4743 H 2.3552451671136083 86.72620005770838 10.280923368861018 H 0.0 **** 0.06
4744 H 2.2687057001768522 88.47995030799831 10.571661483361204 H 0.0 **** 0.06
4745 H 3.5778160312834615 87.80702534043246 9.570510210808633 H 0.0 **** 0.06
4746 C 67.03423582258671 19.21918276739993 52.951844323673555 C 0.0 **** -0.24
4747 H 66.40821101687209 19.88729195563012 52.35991909517941 H 0.0 **** 0.06
4748 H 66.60628359215141 18.216613444899565 52.943534918841436 H 0.0 **** 0.06
4749 H 67.08593365129835 19.58415165015893 53.977993183045896 H 0.0 **** 0.06
4750 H 68.03753453740947 19.19043866304372 52.52685037986453 H 0.0 **** 0.06
4751 C 6.494799265282502 87.20801237388312 97.92893192854885 C 0.0 **** -0.24
4752 H 7.184295229742766 87.50843732884951 98.71724245993161 H 0.0 **** 0.06
4753 H 5.642459457506401 86.69135523987987 98.36947547155657 H 0.0 **** 0.06
4754 H 7.005403665925195 86.53963875485181 97.23423102055682 H 0.0 **** 0.06
4755 H 6.148384946211937 88.09202240907018 97.3934249024671 H 0.0 **** 0.06
4756 C 7.7609621389216805 39.11526073094308 90.01538465590124 C 0.0 **** -0.24
4757 H 7.209385472519102 38.53961663065212 90.75991507445701 H 0.0 **** 0.06
4758 H 8.040535705984105 38.465112743094494 89.18709331998969 H 0.0 **** 0.06
4759 H 8.659673561924016 39.53139448017083 90.47216354079922 H 0.0 **** 0.06
4760 H 7.133392608791494 39.92603788539191 89.6456844153854 H 0.0 **** 0.06
4761 C 97.093929875414 98.4450830577523 31.63107298897483 C 0.0 **** -0.24
4762 H 97.91939551688512 98.80062805475688 31.014872059151052 H 0.0 **** 0.06
4763 H 97.48848386449089 97.88855488222634 32.48132879885582 H 0.0 **** 0.06
4764 H 96.45190656944786 97.7940269329745 31.037566123862895 H 0.0 **** 0.06
4765 H 96.516313476703 99.29597183219175 31.989795554313226 H 0.0 **** 0.06
4766 C 82.70177569954166 57.99192618714461 95.19759117442675 C 0.0 **** -0.24
4767 H 83.07801651380234 58.720323745978725 94.47833022562563 H 0.0 **** 0.06
4768 H 82.04247797575624 58.489760026124166 95.90784204950631 H 0.0 **** 0.06
4769 H 83.53987011640237 57.543201782258954 95.73061325024656 H 0.0 **** 0.06
4770 H 82.14832662608879 57.21440982036638 94.67123882113299 H 0.0 **** 0.06
4771 C 14.627074658914921 102.3634280631627 36.50815073020482 C 0.0 **** -0.24
4772 H 14.856032142959577 103.33905168472299 36.080303368794716 H 0.0 **** 0.06
4773 H 14.393163230226321 102.47813561919699 37.56683672853217 H 0.0 **** 0.06
4774 H 15.488363886756815 101.70607783957146 36.3947449774102 H 0.0 **** 0.06
4775 H 13.770138385130252 101.9328203361558 35.990801178423624 H 0.0 **** 0.06
4776 C 50.591967748297066 53.75538032714703 69.03137802148225 C 0.0 **** -0.24
4777 H 50.6569157670578 53.43516260089527 70.07132982860716 H 0.0 **** 0.06
4778 H 49.778458145172465 54.473904496873374 68.92205902990446 H 0.0 **** 0.06
4779 H 50.40026231271642 52.89082851593442 68.39561737639278 H 0.0 **** 0.06
4780 H 51.53174678213236 54.222775093381806 68.7353054665765 H 0.0 **** 0.06
4781 C 23.26412385714481 64.41434304278482 76.81820387886196 C 0.0 **** -0.24
4782 H 23.53514160686123 65.20646864457649 77.51735757606457 H 0.0 **** 0.06
4783 H 22.324932750699148 63.95958397334135 77.1326917581498 H 0.0 **** 0.06
4784 H 24.04880461850979 63.65839452275287 76.80519292563892 H 0.0 **** 0.06
4785 H 23.147860064252043 64.83651257952886 75.81982518056745 H 0.0 **** 0.06
4786 C 84.20265568982796 73.09888798616666 60.98339881573636 C 0.0 **** -0.24
4787 H 85.12503778300243 72.52103628004389 60.915648265457854 H 0.0 **** 0.06
4788 H 84.07148109623432 73.68127922018232 60.07057344730698 H 0.0 **** 0.06
4789 H 84.25823551209339 73.77235246438039 61.83903302880014 H 0.0 **** 0.06
4790 H 83.35777663938296 72.42132604382724 61.1079364090458 H 0.0 **** 0.06
4791 C 31.219292278081582 69.3283348342685 52.389418354268265 C 0.0 **** -0.24
4792 H 30.742828593649193 68.75350724187422 53.18424415151232 H 0.0 **** 0.06
4793 H 30.90807928415387 68.93525368917267 51.4207041702787 H 0.0 **** 0.06
4794 H 32.30250496400305 69.24865313303559 52.482576868871455 H 0.0 **** 0.06
4795 H 30.92306209573684 70.37415906238209 52.46951668199634 H 0.0 **** 0.06
4796 C 40.69913285350077 90.88735428545087 99.40039693836732 C 0.0 **** -0.24
4797 H 40.5403709074364 90.85125610842556 98.32275695229976 H 0.0 **** 0.06
4798 H 39.816381713273074 90.50094502997973 99.91108644584952 H 0.0 **** 0.06
4799 H 40.87460231342746 91.91760468085795 99.70728923848182 H 0.0 **** 0.06
4800 H 41.56418571647396 90.27762570280473 99.66017946164408 H 0.0 **** 0.06
4801 C 58.655119799187815 52.19429676696245 29.639260180918086 C 0.0 **** -0.24
4802 H 59.44491227904342 51.92341102615541 30.339346673293562 H 0.0 **** 0.06
4803 H 58.24163343909672 51.2907382289049 29.190446824544637 H 0.0 **** 0.06
4804 H 59.06583318088914 52.83312460927999 28.8571304480852 H 0.0 **** 0.06
4805 H 57.8680616930541 52.73034970292201 30.169217870263992 H 0.0 **** 0.06
4806 C 38.05365179036353 64.89494510664258 99.91469405444258 C 0.0 **** -0.24
4807 H 38.460424890264974 64.77540122279171 100.91963105878986 H 0.0 **** 0.06
4808 H 38.760216015317134 64.4940346238732 99.1871796318959 H 0.0 **** 0.06
4809 H 37.886973033799144 65.95344291649272 99.71515217043927 H 0.0 **** 0.06
4810 H 37.1089196716868 64.35752827812186 99.83979612101771 H 0.0 **** 0.06
4811 C 47.56806802776171 95.77239546351726 9.003769231437403 C 0.0 **** -0.24
4812 H 47.82836539537868 95.68865068138015 7.94912975707706 H 0.0 **** 0.06
4813 H 48.43806734672103 95.52937788702116 9.61400856659634 H 0.0 **** 0.06
4814 H 46.75823804616516 95.08065215557966 9.23429894985837 H 0.0 **** 0.06
4815 H 47.247123297390715 96.79151143692769 9.219188583287064 H 0.0 **** 0.06
4816 C 41.393057739084384 19.76345802007677 43.102777478883695 C 0.0 **** -0.24
4817 H 42.3049753920653 19.213083044878317 43.336379760129404 H 0.0 **** 0.06
4818 H 41.24401548195408 19.77673593815686 42.02274806503527 H 0.0 **** 0.06
4819 H 41.48223583015334 20.786317048242125 43.469770817014364 H 0.0 **** 0.06
4820 H 40.5431337491336 19.277829645927625 43.58154218580751 H 0.0 **** 0.06
4821 C 67.63703410695965 71.31827313806664 78.06109199415164 C 0.0 **** -0.24
4822 H 68.14973715384306 70.61302209349026 77.40638749307894 H 0.0 **** 0.06
4823 H 66.66702015353982 70.91006503688604 78.34738999768851 H 0.0 **** 0.06
4824 H 67.49292375810302 72.26217904596461 77.53529903229733 H 0.0 **** 0.06
4825 H 68.23874807428646 71.48847624053656 78.95458998904891 H 0.0 **** 0.06
4826 C 34.4127098596218 86.0487117749438 14.504668424121121 C 0.0 **** -0.24
4827 H 34.0271242240546 87.04108290345172 14.739774118348834 H 0.0 **** 0.06
4828 H 34.92088856382858 85.64097773058069 15.379617481269037 H 0.0 **** 0.06
4829 H 35.11587505749705 86.11882863491786 13.675066898424319 H 0.0 **** 0.06
4830 H 33.58656022402789 85.39434056543672 14.226602809131606 H 0.0 **** 0.06
4831 C 48.77354873283866 90.64910256533113 98.14028111786223 C 0.0 **** -0.24
4832 H 48.545143440268646 91.53132241553794 98.7386385120513 H 0.0 **** 0.06
4833 H 49.42775988475418 90.93007472048171 97.31484074021907 H 0.0 **** 0.06
4834 H 47.848516892881975 90.22905055569484 97.74517378861893 H 0.0 **** 0.06
4835 H 49.27281385084592 89.90717707263383 98.76370578093133 H 0.0 **** 0.06
4836 C 109.20866008547944 59.33312094292608 77.83057686069446 C 0.0 **** -0.24
4837 H 109.90837401825411 59.10421152774574 77.02720817708806 H 0.0 **** 0.06
4838 H 109.41171812641176 60.33408422425108 78.21318947600949 H 0.0 **** 0.06
4839 H 109.32712006116589 58.60566888014936 78.63378364282093 H 0.0 **** 0.06
4840 H 108.18907196559275 59.289649360919505 77.44826985183988 H 0.0 **** 0.06
4841 C 67.62198871727927 86.00897748310905 20.021275782914813 C 0.0 **** -0.24
4842 H 67.33554541993149 86.16248090193659 21.062016079259934 H 0.0 **** 0.06
4843 H 66.90048701518472 86.5036833981319 19.369928085089896 H 0.0 **** 0.06
4844 H 67.63815912623238 84.94171950507001 19.80331192687629 H 0.0 **** 0.06
4845 H 68.61363829008906 86.43053004283453 19.85243847149968 H 0.0 **** 0.06
4846 C 55.774838395909605 26.335658234060503 3.205805880392319 C 0.0 **** -0.24
4847 H 54.85405025228348 26.2733355171559 2.625362520329702 H 0.0 **** 0.06
4848 H 55.85847221827323 27.327292618252756 3.6499544964249537 H 0.0 **** 0.06
4849 H 56.62851960703218 26.156973934589757 2.5513681439696256 H 0.0 **** 0.06
4850 H 55.757927079705475 25.583504611790445 3.99494995052342 H 0.0 **** 0.06
4851 C 53.02315599919373 27.84765639332418 104.56315847052389 C 0.0 **** -0.24
4852 H 52.85653480077958 28.59312739240321 103.78595725907442 H 0.0 **** 0.06
4853 H 52.18880286362518 27.862881393181205 105.26554691459339 H 0.0 **** 0.06
4854 H 53.948918390797004 28.075049649572172 105.09231603478636 H 0.0 **** 0.06
4855 H 53.09836794157311 26.859567138140143 104.10881367364163 H 0.0 **** 0.06
4856 C 87.4859781171993 89.49353664423984 48.270427698641015 C 0.0 **** -0.24
4857 H 86.95717065596372 89.91995486123392 49.12391622552599 H 0.0 **** 0.06
4858 H 87.46497571310962 90.19988393476865 47.44092618789432 H 0.0 **** 0.06
4859 H 87.00084905585331 88.56458917410544 47.97076325180353 H 0.0 **** 0.06
4860 H 88.51962552207354 89.29010018552651 48.54959614112681 H 0.0 **** 0.06
4861 C 55.83359135824719 46.0522059090911 58.160104289674955 C 0.0 **** -0.24
4862 H 55.18366529763682 46.09778514775627 59.03429652938129 H 0.0 **** 0.06
4863 H 55.23618894623115 45.82914209623243 57.27552227446507 H 0.0 **** 0.06
4864 H 56.579476148439994 45.271584120833666 58.30197311959093 H 0.0 **** 0.06
4865 H 56.33191273745456 47.01311773977494 58.029242966256994 H 0.0 **** 0.06
4866 C 80.83026097103996 68.76231666260117 100.2435457349838 C 0.0 **** -0.24
4867 H 80.85210100041118 69.81566508262463 99.9624753507037 H 0.0 **** 0.06
4868 H 79.8104488975635 68.47792745160154 100.5055220351949 H 0.0 **** 0.06
4869 H 81.48468221599788 68.60066454896912 101.09910036203564 H 0.0 **** 0.06
4870 H 81.1717624751339 68.15605209285229 99.4041331885796 H 0.0 **** 0.06
4871 C 75.41938582435367 7.180957857470929 97.19047504684895 C 0.0 **** -0.24
4872 H 74.94105498524436 6.617199713616529 97.9912607489911 H 0.0 **** 0.06
4873 H 76.47439581797786 6.91074216139117 97.13650440518637 H 0.0 **** 0.06
4874 H 75.32815777067432 8.248241700548107 97.3920861280657 H 0.0 **** 0.06
4875 H 74.93528373663207 6.947323486807107 96.24232288102226 H 0.0 **** 0.06
4876 C 83.34955185141084 40.380828416325244 83.96217887694817 C 0.0 **** -0.24
4877 H 84.03755005795097 40.09832109065643 83.1658551852367 H 0.0 **** 0.06
4878 H 83.80155979691233 41.16336835827538 84.57256114327373 H 0.0 **** 0.06
4879 H 83.13735187397228 39.51146995333124 84.58490229080917 H 0.0 **** 0.06
4880 H 82.42174567680783 40.75015426303784 83.52539688847318 H 0.0 **** 0.06
4881 C 41.74279242860343 66.49621295267806 64.19463097316063 C 0.0 **** -0.24
4882 H 42.008559287155535 67.53419683354227 64.39363550510708 H 0.0 **** 0.06
4883 H 42.1493986393045 65.85968075490337 64.98145345935012 H 0.0 **** 0.06
4884 H 42.156822639027595 66.19363795964617 63.23206002601186 H 0.0 **** 0.06
4885 H 40.65774833773918 66.39772104710275 64.17130663710213 H 0.0 **** 0.06
4886 C 1.555650390052108 22.64642904508179 102.99247894118906 C 0.0 **** -0.24
4887 H 1.1931699114485355 21.99705108223111 103.79022867156289 H 0.0 **** 0.06
4888 H 2.616296246333377 22.458719616983444 102.8257908449022 H 0.0 **** 0.06
4889 H 1.410164734272115 23.68753971893075 103.27880710852139 H 0.0 **** 0.06
4890 H 1.0014838394502306 22.440005960104216 102.07651422139139 H 0.0 **** 0.06
4891 C 7.0230042890374875 21.888618419667893 67.01023291824342 C 0.0 **** -0.24
4892 H 7.587963813312058 21.725712938758235 67.92848722704719 H 0.0 **** 0.06
4893 H 7.227675406101696 21.078277528649338 66.30995382315572 H 0.0 **** 0.06
4894 H 7.3196020391447405 22.83871039211141 66.5653605388145 H 0.0 **** 0.06
4895 H 5.957873009469381 21.911688171236634 67.23907673849027 H 0.0 **** 0.06
4896 C 103.41198836820021 3.574826665821689 29.20280651083442 C 0.0 **** -0.24
4897 H 103.20122558688522 3.634264536122373 28.135479698318306 H 0.0 **** 0.06
4898 H 104.12650806987838 4.351556199192771 29.476578783133704 H 0.0 **** 0.06
4899 H 103.83247203640988 2.5958809086727115 29.43611995373257 H 0.0 **** 0.06
4900 H 102.48910318422273 3.7165520863050006 29.764480958811987 H 0.0 **** 0.06
4901 C 28.01196584628474 20.591470828915398 79.3872622974325 C 0.0 **** -0.24
4902 H 27.789367384984303 21.54725167425383 78.91128921379894 H 0.0 **** 0.06
4903 H 27.66638328484686 20.611520680580487 80.42102005824648 H 0.0 **** 0.06
4904 H 29.08764562032536 20.417814381747064 79.36714200864841 H 0.0 **** 0.06
4905 H 27.504181683852664 19.79130120423174 78.84864906652697 H 0.0 **** 0.06
4906 C 86.34745397861317 101.7326735235136 108.92549202165719 C 0.0 **** -0.24
4907 H 85.69675841848931 102.38585823743992 109.50707384565283 H 0.0 **** 0.06
4908 H 87.2110847290455 101.45081936721559 109.52909258330831 H 0.0 **** 0.06
4909 H 86.68444648329628 102.25795346708784 108.03164055621542 H 0.0 **** 0.06
4910 H 85.79914190757205 100.83647793709858 108.63595496468852 H 0.0 **** 0.06
4911 C 87.18699593679128 56.895052319424984 49.81017824331961 C 0.0 **** -0.24
4912 H 86.93314405914128 56.33023679284909 50.70753161227205 H 0.0 **** 0.06
4913 H 87.52158875787075 56.20893470212415 49.03210649265731 H 0.0 **** 0.06
4914 H 87.98387004729705 57.60244535501781 50.039392392946574 H 0.0 **** 0.06
4915 H 86.3081804654322 57.43821684844816 49.462329044559 H 0.0 **** 0.06
4916 C 1.3786536488446473 85.48861551465399 14.80078688850358 C 0.0 **** -0.24
4917 H 1.8747029084369728 85.09964913231369 15.690378205288937 H 0.0 **** 0.06
4918 H 0.30581276318555695 85.31369568204639 14.877545213177768 H 0.0 **** 0.06
4919 H 1.7683048054847177 84.98161350685996 13.91714928166303 H 0.0 **** 0.06
4920 H 1.5680989838739237 86.558913100398 14.717492545690305 H 0.0 **** 0.06
4921 C 108.31827780564655 17.92547575579398 36.75835795770657 C 0.0 **** -0.24
4922 H 109.37799261936794 18.0596991492165 36.54085164446534 H 0.0 **** 0.06
4923 H 107.73529619367187 18.64655096774712 36.18453270150155 H 0.0 **** 0.06
4924 H 108.14356400192978 18.080761457466263 37.822900026017855 H 0.0 **** 0.06
4925 H 108.01708723731784 16.91451263638778 36.484735634549 H 0.0 **** 0.06
4926 C 52.425004580915406 72.52761987607039 112.55911891785213 C 0.0 **** -0.24
4927 H 51.53990598778988 72.27158266516182 111.97645277267097 H 0.0 **** 0.06
4928 H 52.35439320607643 73.56509306819586 112.88883380899972 H 0.0 **** 0.06
4929 H 53.314462407405706 72.40203237868982 111.94277739699616 H 0.0 **** 0.06
4930 H 52.4892863142573 71.8731461828296 113.4279344266177 H 0.0 **** 0.06
4931 C 48.74396159443314 30.66874551460092 64.81041534882775 C 0.0 **** -0.24
4932 H 49.44976305983983 31.29453780241827 65.35541958719443 H 0.0 **** 0.06
4933 H 49.26833795690656 30.13691148870557 64.01553266740581 H 0.0 **** 0.06
4934 H 47.96381414748719 31.293904849345715 64.3764313173879 H 0.0 **** 0.06
4935 H 48.29362835815167 29.94868363870915 65.49414870280663 H 0.0 **** 0.06
4936 C 0.03619761437572322 35.42788783936773 56.58135250499969 C 0.0 **** -0.24
4937 H -0.6627445708881226 35.21804197118078 57.39165737500257 H 0.0 **** 0.06
4938 H 1.0472036281843629 35.175217247532004 56.899322226497894 H 0.0 **** 0.06
4939 H -0.011451539287847368 36.48680239436244 56.32692781198135 H 0.0 **** 0.06
4940 H -0.23097501812551968 34.8325304135935 55.70864770241888 H 0.0 **** 0.06
4941 C 82.60271293049365 22.22186011134771 41.53350310132055 C 0.0 **** -0.24
4942 H 81.60523506911497 22.575205866624543 41.79505059182975 H 0.0 **** 0.06
4943 H 83.19942147629217 23.05880191255535 41.168251370627274 H 0.0 **** 0.06
4944 H 82.52660502947799 21.46254629768821 40.75458490022521 H 0.0 **** 0.06
4945 H 83.07867786155836 21.792531471459533 42.414916553329704 H 0.0 **** 0.06
4946 C 99.62773873924033 103.30311167577733 110.77377583546371 C 0.0 **** -0.24
4947 H 98.79068819893462 103.7893457186822 111.27629978868384 H 0.0 **** 0.06
4948 H 100.44166675496552 103.15606269318334 111.48404775466065 H 0.0 **** 0.06
4949 H 99.9716505419199 103.93162927206762 109.95210454307374 H 0.0 **** 0.06
4950 H 99.30626595340388 102.33777203702127 110.38436865881098 H 0.0 **** 0.06
4951 C 48.348454904560995 79.27789169192533 92.04886862528625 C 0.0 **** -0.24
4952 H 49.15991272885496 78.81558272715012 91.48659464939772 H 0.0 **** 0.06
4953 H 48.758500552040275 79.80723077847537 92.90850287489039 H 0.0 **** 0.06
4954 H 47.65955181366996 78.50604609534474 92.3928909052488 H 0.0 **** 0.06
4955 H 47.816379140526074 79.98031451423972 91.40746786282364 H 0.0 **** 0.06
4956 C 88.13834240528101 67.9873702787392 26.57566124763386 C 0.0 **** -0.24
4957 H 87.8223392592968 67.77661485054904 25.553928622526428 H 0.0 **** 0.06
4958 H 88.27783565539593 69.0619037443798 26.698270021522262 H 0.0 **** 0.06
4959 H 89.07732799413006 67.47384431256938 26.778674674441675 H 0.0 **** 0.06
4960 H 87.37450678564664 67.6380579524853 27.270645747680476 H 0.0 **** 0.06
4961 C 76.28318200568393 71.13199189055996 63.015106059518025 C 0.0 **** -0.24
4962 H 75.7158185214839 71.55512978814318 63.84440782568205 H 0.0 **** 0.06
4963 H 76.9259509935913 70.33318387569767 63.38537918469442 H 0.0 **** 0.06
4964 H 76.89522833937215 71.90966425543041 62.559512707810704 H 0.0 **** 0.06
4965 H 75.59480823633945 70.7294929686131 62.27250420326789 H 0.0 **** 0.06
4966 C 108.27353894176116 78.11946436399671 87.06554378545812 C 0.0 **** -0.24
4967 H 108.48459748650329 77.1575614477249 87.53251856719999 H 0.0 **** 0.06
4968 H 108.43010127435723 78.91729259124816 87.7919064884201 H 0.0 **** 0.06
4969 H 107.23964853635114 78.13774589436139 86.72172003765948 H 0.0 **** 0.06
4970 H 108.94168652524533 78.26406323232186 86.21581357201205 H 0.0 **** 0.06
4971 C 8.827397645177497 86.88166844140773 44.969387907814564 C 0.0 **** -0.24
4972 H 8.866262588083682 86.63314926502008 43.90966340494589 H 0.0 **** 0.06
4973 H 9.633337855311966 86.36697999432738 45.49392165659316 H 0.0 **** 0.06
4974 H 7.86760193153761 86.56805637825656 45.381481494479374 H 0.0 **** 0.06
4975 H 8.941981076453036 87.9586075302849 45.094680587123776 H 0.0 **** 0.06
4976 C 110.14954434480441 99.92004357586063 58.33202008277408 C 0.0 **** -0.24
4977 H 111.1170050302365 100.39499148479041 58.49883065855818 H 0.0 **** 0.06
4978 H 110.28323651056195 98.84154995892246 58.25405691263063 H 0.0 **** 0.06
4979 H 109.71326341593885 100.30133085732655 57.40793381085655 H 0.0 **** 0.06
4980 H 109.48596725857129 100.14561384832794 59.16666244802275 H 0.0 **** 0.06
4981 C 8.203129679404867 62.03831122813124 81.51744721658818 C 0.0 **** -0.24
4982 H 9.161120922985845 62.40619296597239 81.15075366270881 H 0.0 **** 0.06
4983 H 7.9760247117968675 62.5094651907363 82.47454008107616 H 0.0 **** 0.06
4984 H 8.25517990140321 60.95737672867586 81.64701866976944 H 0.0 **** 0.06
4985 H 7.421105741990743 62.28121545899068 80.79787199479458 H 0.0 **** 0.06
4986 C 7.251792780497375 17.56891678262358 5.380551335983526 C 0.0 **** -0.24
4987 H 6.274002571003338 17.649120916547844 4.9051167790910455 H 0.0 **** 0.06
4988 H 7.643490583481682 18.56791011149833 5.575506778516342 H 0.0 **** 0.06
4989 H 7.933866515864427 17.032468366964828 4.720405938550158 H 0.0 **** 0.06
4990 H 7.154427082757726 17.027055793442187 6.320632666379353 H 0.0 **** 0.06
4991 C 20.055988878468497 33.0602369979428 31.873328697572163 C 0.0 **** -0.24
4992 H 19.980328400374333 33.854729150858006 31.13108137509954 H 0.0 **** 0.06
4993 H 20.59512260118285 32.21381501082205 31.44692737903489 H 0.0 **** 0.06
4994 H 19.055459447838274 32.742745034500295 32.16866436581216 H 0.0 **** 0.06
4995 H 20.592189408065593 33.43027998797785 32.74801358225329 H 0.0 **** 0.06
4996 C 72.38165775040008 110.07578708074136 22.640171014033342 C 0.0 **** -0.24
4997 H 71.398569691902 110.14559363997898 23.10533472833177 H 0.0 **** 0.06
4998 H 72.27459423882942 109.72243146122143 21.614263786070154 H 0.0 **** 0.06
4999 H 73.0007998654701 109.37672852860359 23.201763866771245 H 0.0 **** 0.06
5000 H 72.85266720539897 111.0583946931615 22.63932167496023 H 0.0 **** 0.06
5001 C 4.587024894049563 80.18998145909296 46.05021781889946 C 0.0 **** -0.24
5002 H 3.989302644909145 79.84290747003973 46.89343498267681 H 0.0 **** 0.06
5003 H 5.402039871624055 80.81533548568925 46.41654608355096 H 0.0 **** 0.06
5004 H 3.9589817638737657 80.77000682691269 45.37355924556254 H 0.0 **** 0.06
5005 H 4.998399092343362 79.33190169211693 45.51857999488317 H 0.0 **** 0.06
5006 C 100.14870096985533 98.67322766937971 49.93628243000968 C 0.0 **** -0.24
5007 H 100.56883125707907 97.91220040734655 49.27911167114904 H 0.0 **** 0.06
5008 H 99.68168237456672 98.19180325571298 50.795978075859175 H 0.0 **** 0.06
5009 H 99.40085484607908 99.25072530632482 49.39150345929534 H 0.0 **** 0.06
5010 H 100.94284027385407 99.33757766594744 50.278006407508705 H 0.0 **** 0.06
5011 C 4.757690026062164 26.23633575565495 7.673411198783143 C 0.0 **** -0.24
5012 H 5.613309924927066 26.799826704881298 7.2986765753013145 H 0.0 **** 0.06
5013 H 3.848448972967276 26.819969150529204 7.5309045950944125 H 0.0 **** 0.06
5014 H 4.895820596830802 26.029542705574556 8.734030307230427 H 0.0 **** 0.06
5015 H 4.67604762637022 25.297151309932616 7.127300934354807 H 0.0 **** 0.06
5016 C 81.53247218361471 44.606686757534064 56.83896293036133 C 0.0 **** -0.24
5017 H 81.04752186572625 43.97969217398807 56.090341926904244 H 0.0 **** 0.06
5018 H 82.12330579041347 43.98129198509832 57.50877668058163 H 0.0 **** 0.06
5019 H 80.77365261099871 45.13848377087925 57.412916045887556 H 0.0 **** 0.06
5020 H 82.18404195140312 45.32542958974523 56.34297309782593 H 0.0 **** 0.06
5021 C 61.183748683270466 75.1673897213116 88.67421972056408 C 0.0 **** -0.24
5022 H 61.702027134427595 75.84307385039077 89.35613314000125 H 0.0 **** 0.06
5023 H 61.742901625608965 74.23523749784715 88.592600998372 H 0.0 **** 0.06
5024 H 61.10490776440716 75.63257437076442 87.6918533348275 H 0.0 **** 0.06
5025 H 60.18538809641126 74.95977751410777 89.05985909199228 H 0.0 **** 0.06
5026 C 29.293579031297213 75.74634677653486 32.30998956761106 C 0.0 **** -0.24
5027 H 29.321744305276184 75.70504963125481 33.3993263899241 H 0.0 **** 0.06
5028 H 29.394068082217927 74.73867954178584 31.906616179829044 H 0.0 **** 0.06
5029 H 30.114191702127073 76.36637057869325 31.94901488579405 H 0.0 **** 0.06
5030 H 28.344803426437238 76.17463573351057 31.988367505543287 H 0.0 **** 0.06
5031 C 16.033963723517672 55.582227051113264 4.833658499170767 C 0.0 **** -0.24
5032 H 16.8842728231877 55.91170727467958 4.237328426663822 H 0.0 **** 0.06
5033 H 15.616642359828234 54.673307887328654 4.401012931607482 H 0.0 **** 0.06
5034 H 15.272373418902987 56.3630803136531 4.842707155663689 H 0.0 **** 0.06
5035 H 16.360974626454492 55.382489904985526 5.85439419818924 H 0.0 **** 0.06
5036 C 19.036084793800285 42.62395251519721 101.77390275654628 C 0.0 **** -0.24
5037 H 18.678240532130076 41.71988418182273 101.28156516417232 H 0.0 **** 0.06
5038 H 19.178730548044655 42.42760590999912 102.83707426353578 H 0.0 **** 0.06
5039 H 18.303430342418153 43.42106129999571 101.64622170678732 H 0.0 **** 0.06
5040 H 19.984585725889474 42.92729163106274 101.32949324632406 H 0.0 **** 0.06
5041 C 29.03669070370222 87.99474959468859 91.24301961162956 C 0.0 **** -0.24
5042 H 29.117849514639744 86.91797514585784 91.09798732360406 H 0.0 **** 0.06
5043 H 29.64869440148226 88.50781931888872 90.50192632488773 H 0.0 **** 0.06
5044 H 29.38275963548196 88.25375585762288 92.24308429758744 H 0.0 **** 0.06
5045 H 27.995886258261095 88.29872723670888 91.1291595232945 H 0.0 **** 0.06
5046 C 106.07305105319651 15.505780615807083 63.69305025414349 C 0.0 **** -0.24
5047 H 106.51999161490868 16.18312535316298 62.9656551720774 H 0.0 **** 0.06
5048 H 106.51814913929337 14.515432032385846 63.588729296367966 H 0.0 **** 0.06
5049 H 104.99860071397171 15.441737588511046 63.5175497715263 H 0.0 **** 0.06
5050 H 106.25558496262084 15.88127102168525 64.6995166820059 H 0.0 **** 0.06
5051 C 75.71541042834394 109.01106426473197 21.555828951889225 C 0.0 **** -0.24
5052 H 75.29542720663818 108.61308489167835 20.631740787043327 H 0.0 **** 0.06
5053 H 76.8032115184316 108.95859595706138 21.513529535024134 H 0.0 **** 0.06
5054 H 75.35471400655214 108.4226524897281 22.400463285067417 H 0.0 **** 0.06
5055 H 75.40503312644336 110.0484766280124 21.678135433694024 H 0.0 **** 0.06
5056 C 38.58031402604149 56.651840569151744 47.3581759770959 C 0.0 **** -0.24
5057 H 37.91947464890302 57.30743718115832 46.79148226405161 H 0.0 **** 0.06
5058 H 38.681324048815924 55.69947384457268 46.83712317661559 H 0.0 **** 0.06
5059 H 38.15982414234506 56.480832035776956 48.34992887753867 H 0.0 **** 0.06
5060 H 39.560539722250894 57.118678049566824 47.455221051451986 H 0.0 **** 0.06
5061 C 110.42334239463872 79.31662373795132 17.74994592550297 C 0.0 **** -0.24
5062 H 110.06013264687715 80.25836739395177 17.34014246284127 H 0.0 **** 0.06
5063 H 109.92280013554563 79.11508995332949 18.698117897531375 H 0.0 **** 0.06
5064 H 111.49984516179146 79.38134080697944 17.91353681692479 H 0.0 **** 0.06
5065 H 110.2105870612661 78.50924780615273 17.0479339833785 H 0.0 **** 0.06
5066 C 63.78490888631421 77.74219292068352 57.775740773994464 C 0.0 **** -0.24
5067 H 63.13889966856908 77.5590142752742 56.91741563985114 H 0.0 **** 0.06
5068 H 63.17652441961741 77.82626285288455 58.677307790797606 H 0.0 **** 0.06
5069 H 64.33867314436228 78.66808608414576 57.62279849100004 H 0.0 **** 0.06
5070 H 64.48453574285597 76.91345933521717 57.88653482233361 H 0.0 **** 0.06
5071 C 41.01344016127504 104.09737242574994 95.30058923082592 C 0.0 **** -0.24
5072 H 41.699070079880585 104.31413101635246 94.48169382062346 H 0.0 **** 0.06
5073 H 40.26017854191764 104.88386348212197 95.36172213394937 H 0.0 **** 0.06
5074 H 41.56859609941745 104.05112970760052 96.23752513566035 H 0.0 **** 0.06
5075 H 40.52395548606236 103.13930090179701 95.12126219590343 H 0.0 **** 0.06
5076 C 71.43077928755784 57.15614770258446 87.70371056791168 C 0.0 **** -0.24
5077 H 70.53516957729013 57.36158102397195 88.290638865794 H 0.0 **** 0.06
5078 H 71.7068817278766 58.0475474149531 87.13987067824223 H 0.0 **** 0.06
5079 H 71.23168681970071 56.33697154588418 87.01307681672745 H 0.0 **** 0.06
5080 H 72.24688054242785 56.880365136442606 88.37076082619171 H 0.0 **** 0.06
5081 C 17.563329763397746 2.337700788879367 30.394910435518028 C 0.0 **** -0.24
5082 H 17.395453997769494 3.0646001028689227 29.5998547538168 H 0.0 **** 0.06
5083 H 18.40548875583977 1.6978893802114765 30.129546470602975 H 0.0 **** 0.06
5084 H 16.669174593715667 1.7277506013717474 30.5245241121398 H 0.0 **** 0.06
5085 H 17.78346511247642 2.862384743644908 31.324933875592507 H 0.0 **** 0.06
5086 C 38.91599567824031 64.51369396030566 8.20991149250134 C 0.0 **** -0.24
5087 H 38.55227332421015 65.4965581721425 8.509411701329906 H 0.0 **** 0.06
5088 H 39.746764929802595 64.63050619011153 7.513666011052855 H 0.0 **** 0.06
5089 H 38.11073676723592 63.96148628528198 7.725571579283624 H 0.0 **** 0.06
5090 H 39.253527982882446 63.96669156010921 9.090430502579837 H 0.0 **** 0.06
5091 C 16.577942503620477 97.7021841764543 55.96677369515777 C 0.0 **** -0.24
5092 H 15.513216934181486 97.7636496676918 56.194657252267575 H 0.0 **** 0.06
5093 H 16.95707792797532 98.6979306057961 55.73313109008444 H 0.0 **** 0.06
5094 H 16.728652128527813 97.04608304575501 55.108811358088246 H 0.0 **** 0.06
5095 H 17.111391746006404 97.30277486117001 56.828746686106456 H 0.0 **** 0.06
5096 C 21.97929567456342 7.154317584462447 36.38984698893669 C 0.0 **** -0.24
5097 H 21.93691283713098 6.530794817319446 35.49600610570817 H 0.0 **** 0.06
5098 H 21.38792291123722 8.055832462695975 36.23236200361565 H 0.0 **** 0.06
5099 H 23.015052088569362 7.428754692528045 36.59164727524451 H 0.0 **** 0.06
5100 H 21.579177369690395 6.599955441333918 37.23852379504352 H 0.0 **** 0.06
5101 C 0.15922268768932035 77.62429344320714 107.60441435035861 C 0.0 **** -0.24
5102 H 1.2352181357557876 77.7420144594418 107.4716400566766 H 0.0 **** 0.06
5103 H -0.12737115604971372 77.99146132123232 108.5895159016836 H 0.0 **** 0.06
5104 H -0.10368106631694918 76.57065254308901 107.51701416643269 H 0.0 **** 0.06
5105 H -0.36452259963613187 78.19402100606479 106.83714794348353 H 0.0 **** 0.06
5106 C 26.709991197995507 27.993316344195783 1.6551524574857837 C 0.0 **** -0.24
5107 H 26.146431050902322 28.44360994439026 2.472380106862687 H 0.0 **** 0.06
5108 H 26.018313964816336 27.564272769827603 0.9302851618915327 H 0.0 **** 0.06
5109 H 27.357463775215045 27.20952688587562 2.04882079535291 H 0.0 **** 0.06
5110 H 27.31753578428826 28.75725129950296 1.16918806282969 H 0.0 **** 0.06
5111 C 79.96021394931955 9.295099578442262 47.129526293002925 C 0.0 **** -0.24
5112 H 79.13926954755101 9.350710735672266 46.41452623184733 H 0.0 **** 0.06
5113 H 80.73204694016619 8.627244326449812 46.74491132174356 H 0.0 **** 0.06
5114 H 79.58832464220308 8.91110538973328 48.079677976098 H 0.0 **** 0.06
5115 H 80.38038493452979 10.28925452091471 47.27800395775952 H 0.0 **** 0.06
5116 C 21.638350478436166 44.043050184029966 49.755313214550256 C 0.0 **** -0.24
5117 H 21.286553800282178 43.161632469620145 49.2176856572562 H 0.0 **** 0.06
5118 H 20.971324604320642 44.24546481143862 50.59342132448222 H 0.0 **** 0.06
5119 H 21.646543282225878 44.89944613008382 49.081491117805456 H 0.0 **** 0.06
5120 H 22.646112703212367 43.86279678205611 50.127391578926904 H 0.0 **** 0.06
5121 C 0.29293392103568294 35.76501399709667 17.440357323602 C 0.0 **** -0.24
5122 H -0.4454668383431226 35.4116412082671 16.71977321949217 H 0.0 **** 0.06
5123 H 1.2568485552887978 35.300970801859705 17.228364506257662 H 0.0 **** 0.06
5124 H -0.02611770439847305 35.4981489345335 18.4475184068757 H 0.0 **** 0.06
5125 H 0.3854567315035524 36.84797824778053 17.363083085150834 H 0.0 **** 0.06
5126 C 25.893132149286416 31.3187238064789 33.54673884676349 C 0.0 **** -0.24
5127 H 25.41150381399291 32.10523761505082 32.965716843455056 H 0.0 **** 0.06
5128 H 26.97327003573696 31.467059547670168 33.53335647149646 H 0.0 **** 0.06
5129 H 25.65354051506759 30.348072520790545 33.11335070677322 H 0.0 **** 0.06
5130 H 25.53379174163544 31.355996462672067 34.57534257759083 H 0.0 **** 0.06
5131 C 55.565522591233446 87.92764384981888 89.27167927681262 C 0.0 **** -0.24
5132 H 55.11826140470822 88.56525728299155 88.5090653937826 H 0.0 **** 0.06
5133 H 56.01274912626326 87.05400191702489 88.79737178527378 H 0.0 **** 0.06
5134 H 54.795461878842616 87.60712765055456 89.97312366866277 H 0.0 **** 0.06
5135 H 56.33567733457025 88.486110697209 89.80563897262721 H 0.0 **** 0.06
5136 C 82.39826755980712 17.924039502997346 44.268967013029744 C 0.0 **** -0.24
5137 H 83.04351449541389 17.066902075799987 44.07743583916577 H 0.0 **** 0.06
5138 H 82.8235615746396 18.525847144396664 45.072403992053836 H 0.0 **** 0.06
5139 H 81.40823958815699 17.574224308651026 44.56226440511983 H 0.0 **** 0.06
5140 H 82.31882010315516 18.52763390718144 43.36497239361501 H 0.0 **** 0.06
5141 C 80.4390095707407 18.748300185440314 14.86255044718527 C 0.0 **** -0.24
5142 H 80.64642863738638 18.72025637356262 13.793372164663538 H 0.0 **** 0.06
5143 H 81.37081916572436 18.63870360273728 15.416460909666824 H 0.0 **** 0.06
5144 H 79.76229253977127 17.933795998298876 15.122724298229244 H 0.0 **** 0.06
5145 H 79.97453010315229 19.701505992956584 15.11768566245992 H 0.0 **** 0.06
5146 C 26.169438763254618 0.2727011494641687 96.2579733626481 C 0.0 **** -0.24
5147 H 26.71442642788753 -0.5798890679749036 95.85236298870313 H 0.0 **** 0.06
5148 H 26.838536745217596 0.8681770085087521 96.87959126376794 H 0.0 **** 0.06
5149 H 25.33323566149039 -0.08314047928003276 96.85965225103484 H 0.0 **** 0.06
5150 H 25.792568326234118 0.8865527403585389 95.43881257990498 H 0.0 **** 0.06
5151 C 80.86807257488528 105.22333482205647 96.04543481992403 C 0.0 **** -0.24
5152 H 80.98199806496808 105.6059814976822 97.05995880951883 H 0.0 **** 0.06
5153 H 81.85041228474898 104.99320556569316 95.63146057089395 H 0.0 **** 0.06
5154 H 80.37992949838116 105.97499437567828 95.42567954515977 H 0.0 **** 0.06
5155 H 80.26054631915224 104.3179111969709 96.06433883561766 H 0.0 **** 0.06
5156 C 12.73612629755766 7.017224403645573 43.503162533152334 C 0.0 **** -0.24
5157 H 13.281892923266838 6.802006773632426 42.5848360565048 H 0.0 **** 0.06
5158 H 12.01629083805031 7.815108833186159 43.319811081202516 H 0.0 **** 0.06
5159 H 13.43740005964645 7.331778180276345 44.27763303601503 H 0.0 **** 0.06
5160 H 12.210939050700091 6.120476106949434 43.83167619549924 H 0.0 **** 0.06
5161 C 60.2647864560464 76.75096781579737 50.42466556121919 C 0.0 **** -0.24
5162 H 59.71406641667574 77.68679993534658 50.33003434114644 H 0.0 **** 0.06
5163 H 61.334006717876925 76.94940912523316 50.34761042903008 H 0.0 **** 0.06
5164 H 59.963013413927506 76.07051010451738 49.62738843448043 H 0.0 **** 0.06
5165 H 60.04688772388186 76.29714087376703 51.39086718380587 H 0.0 **** 0.06
5166 C 3.9815523741955445 6.721015892290239 108.9905020203613 C 0.0 **** -0.24
5167 H 4.500032903441706 6.244589815181655 109.82271866268727 H 0.0 **** 0.06
5168 H 4.5667397796021305 7.570152570734393 108.63579642535345 H 0.0 **** 0.06
5169 H 3.0021958634124104 7.066592804501113 109.32218686954005 H 0.0 **** 0.06
5170 H 3.857177419307888 6.001317349484452 108.18123489404783 H 0.0 **** 0.06
5171 C 82.40721746041623 78.83416971016274 89.72027124986914 C 0.0 **** -0.24
5172 H 83.00080639692393 79.22407938762126 90.54759830118266 H 0.0 **** 0.06
5173 H 83.07131924681033 78.41259581004388 88.96581737754744 H 0.0 **** 0.06
5174 H 81.82268278193146 79.64116147317756 89.2797887554218 H 0.0 **** 0.06
5175 H 81.73648134301865 78.05803879231121 90.08910489845297 H 0.0 **** 0.06
5176 C 84.08987322947738 30.337160988029098 84.35542475079521 C 0.0 **** -0.24
5177 H 84.20411736071065 29.435798605704775 84.95766434543529 H 0.0 **** 0.06
5178 H 84.2647872490291 31.2143099046654 84.97895686046894 H 0.0 **** 0.06
5179 H 83.0802052650044 30.375844380644764 83.94746575281349 H 0.0 **** 0.06
5180 H 84.8112689116268 30.32190207776509 83.53838201576829 H 0.0 **** 0.06
5181 C 103.84672937025073 12.419277167217587 15.880900046017018 C 0.0 **** -0.24
5182 H 103.64188719015829 13.182247684168516 16.631394561119123 H 0.0 **** 0.06
5183 H 103.92855878588156 11.44618898714451 16.364894587073223 H 0.0 **** 0.06
5184 H 104.78265244405662 12.652026572392884 15.37158267453502 H 0.0 **** 0.06
5185 H 103.03409115117086 12.396735891533751 15.154343480056454 H 0.0 **** 0.06
5186 C 65.8753844961264 13.27215475464402 66.70366040840668 C 0.0 **** -0.24
5187 H 66.73501291640133 13.28094040079236 67.37422898438945 H 0.0 **** 0.06
5188 H 65.8735214132995 12.346769483951391 66.1282162460829 H 0.0 **** 0.06
5189 H 65.9347892723311 14.122707465574706 66.02464380756453 H 0.0 **** 0.06
5190 H 64.9578301096563 13.338517226091255 67.28921179052293 H 0.0 **** 0.06
5191 C 24.670457017482875 16.667357779796134 97.0047144598677 C 0.0 **** -0.24
5192 H 25.674457721684178 17.091891751114844 97.01834903267707 H 0.0 **** 0.06
5193 H 24.719572051472653 15.612578777762138 97.2739268718978 H 0.0 **** 0.06
5194 H 24.247093027948722 16.768132090479355 96.00550234815017 H 0.0 **** 0.06
5195 H 24.043437715440405 17.19839191817846 97.72137962973684 H 0.0 **** 0.06
5196 C 97.02377558847115 105.27239931511446 31.917585851599824 C 0.0 **** -0.24
5197 H 96.7375184513296 104.2418860876609 32.12841218565109 H 0.0 **** 0.06
5198 H 97.79489605338665 105.58670896915152 32.62070251472662 H 0.0 **** 0.06
5199 H 96.15212863308207 105.91953593882187 32.019405356464176 H 0.0 **** 0.06
5200 H 97.4090956287495 105.34154994019835 30.899860889142218 H 0.0 **** 0.06
5201 C 41.689893878526334 4.4118525650033575 72.25467927881385 C 0.0 **** -0.24
5202 H 42.31764379439295 5.209936932102437 72.65070549163352 H 0.0 **** 0.06
5203 H 42.02390080398547 4.152074576104042 71.25049198442889 H 0.0 **** 0.06
5204 H 40.654174881110066 4.749291556529215 72.21819004485377 H 0.0 **** 0.06
5205 H 41.76482065438762 3.5367353942708633 72.90124666458854 H 0.0 **** 0.06
5206 C 68.9647352435658 10.525814672227966 34.52820359618191 C 0.0 **** -0.24
5207 H 68.89275878854508 10.057586709631153 35.509457542856154 H 0.0 **** 0.06
5208 H 69.9800108886514 10.894465853778797 34.376634638393284 H 0.0 **** 0.06
5209 H 68.26362729467414 11.358703994242205 34.47025154643015 H 0.0 **** 0.06
5210 H 68.7253309345025 9.794479464632843 33.7570397289515 H 0.0 **** 0.06
5211 C 12.065413445670217 34.42411442858736 62.3730455447917 C 0.0 **** -0.24
5212 H 11.568258410569527 33.45821031874081 62.460911905159584 H 0.0 **** 0.06
5213 H 12.287207565708556 34.6231870922481 61.324052267697645 H 0.0 **** 0.06
5214 H 12.992731135917722 34.407811080034634 62.944718028797645 H 0.0 **** 0.06
5215 H 11.411662149123174 35.20503620231989 62.76156043420648 H 0.0 **** 0.06
5216 C 96.46271420121744 98.94293640484469 71.53744515041859 C 0.0 **** -0.24
5217 H 95.88143908194783 98.24645400022538 72.14115439129793 H 0.0 **** 0.06
5218 H 97.449044388517 99.07424997975681 71.98101343709786 H 0.0 **** 0.06
5219 H 95.95030497207688 99.90431287536106 71.49911156914808 H 0.0 **** 0.06
5220 H 96.56696116263427 98.54753943003067 70.52658054673282 H 0.0 **** 0.06
5221 C 51.22397551810212 111.4581860206851 112.44358357786575 C 0.0 **** -0.24
5222 H 51.7713239892821 110.60062489099447 112.05306223921224 H 0.0 **** 0.06
5223 H 51.05760029174165 111.3260153378186 113.51255110288052 H 0.0 **** 0.06
5224 H 50.26312929540639 111.53912722824485 111.93351343400437 H 0.0 **** 0.06
5225 H 51.80233933916523 112.36673023015615 112.27439395984479 H 0.0 **** 0.06
5226 C 61.68742113782753 24.18366805444458 41.24173723583755 C 0.0 **** -0.24
5227 H 61.892489476643334 23.370704839759867 40.54535934528519 H 0.0 **** 0.06
5228 H 60.67876401437667 24.071851138037374 41.64264285674318 H 0.0 **** 0.06
5229 H 61.767349249026324 25.137905512876443 40.720523470572516 H 0.0 **** 0.06
5230 H 62.40828247729888 24.15402439524709 42.058063460268386 H 0.0 **** 0.06
5231 C 71.5982108420018 9.14444887071133 50.24807855091868 C 0.0 **** -0.24
5232 H 70.71710146971668 9.523065851710442 50.76666207899078 H 0.0 **** 0.06
5233 H 72.39582594049756 8.966436729066672 50.97012445364672 H 0.0 **** 0.06
5234 H 71.93092569071194 9.878766819508087 49.513904582191316 H 0.0 **** 0.06
5235 H 71.3499745804834 8.210956231661001 49.74303237387505 H 0.0 **** 0.06
5236 C 14.265434437730619 57.544195090722546 72.86953600844635 C 0.0 **** -0.24
5237 H 14.150292870713088 58.610246263427335 72.6674893678078 H 0.0 **** 0.06
5238 H 14.932982326382671 57.40609037637398 73.72056852367322 H 0.0 **** 0.06
5239 H 14.686855561313848 57.05245221297999 71.99345752940584 H 0.0 **** 0.06
5240 H 13.291139334245258 57.110933226167596 73.09627068429037 H 0.0 **** 0.06
5241 C 31.37712847455643 103.35424395182946 39.006356215974584 C 0.0 **** -0.24
5242 H 30.49371956627806 102.93817054871096 39.49012887246916 H 0.0 **** 0.06
5243 H 32.27323903153757 102.96806803724695 39.493335157998935 H 0.0 **** 0.06
5244 H 31.357829966751183 104.44140985479675 39.08914701561956 H 0.0 **** 0.06
5245 H 31.383296644886514 103.07064315557597 37.954835021796306 H 0.0 **** 0.06
5246 C 65.21078393861228 2.946248661157947 35.16357723144836 C 0.0 **** -0.24
5247 H 65.36912456944114 1.9195350966040277 34.831792725716184 H 0.0 **** 0.06
5248 H 64.37050821654549 2.978258449222105 35.85698148759408 H 0.0 **** 0.06
5249 H 64.99564595442416 3.5766233831238683 34.30174392299742 H 0.0 **** 0.06
5250 H 66.10934306371021 3.3080129123887314 35.6642533378149 H 0.0 **** 0.06
5251 C 106.52393403042524 89.46620904898887 60.57856830793702 C 0.0 **** -0.24
5252 H 107.60210347648342 89.50736318887797 60.42271455973395 H 0.0 **** 0.06
5253 H 106.31169698374035 89.4587683987557 61.647491803544824 H 0.0 **** 0.06
5254 H 106.12662053983104 88.56006371083694 60.12170073152066 H 0.0 **** 0.06
5255 H 106.05818051504093 90.33867362012612 60.121028595487985 H 0.0 **** 0.06
5256 C 50.64521941121191 96.63229039366695 19.92282948744497 C 0.0 **** -0.24
5257 H 51.4222164233547 96.68216616040993 20.685745242438884 H 0.0 **** 0.06
5258 H 49.68399499834503 96.89146350311032 20.366438894884794 H 0.0 **** 0.06
5259 H 50.5982927820621 95.62113133200796 19.518058373275068 H 0.0 **** 0.06
5260 H 50.8773455553703 97.33447852660953 19.121296741538714 H 0.0 **** 0.06
5261 C 104.45893313440837 70.80731832659404 83.53601631239442 C 0.0 **** -0.24
5262 H 104.03157886023047 71.24810406277078 84.43669641733257 H 0.0 **** 0.06
5263 H 103.77575986094894 70.95622099220503 82.69934450664778 H 0.0 **** 0.06
5264 H 104.61476443172131 69.73994593213956 83.69213856865221 H 0.0 **** 0.06
5265 H 105.41362938473304 71.28500231926068 83.31588575694539 H 0.0 **** 0.06
5266 C 5.125712631010259 55.876115885814755 99.41413155675929 C 0.0 **** -0.24
5267 H 5.945968640088225 55.179409790299246 99.24127877125551 H 0.0 **** 0.06
5268 H 4.568975912157825 55.56778434635379 100.29872369143831 H 0.0 **** 0.06
5269 H 4.4629630436761545 55.87697865627871 98.54871857207115 H 0.0 **** 0.06
5270 H 5.52673684152785 56.87832524895575 99.56609661207915 H 0.0 **** 0.06
5271 C 78.18835908726513 111.8924382664607 56.30318974804871 C 0.0 **** -0.24
5272 H 78.32449089806914 111.07149080178665 57.00771073543285 H 0.0 **** 0.06
5273 H 78.79172702396724 111.71062240504895 55.41315908503256 H 0.0 **** 0.06
5274 H 78.49906136064041 112.8269167352417 56.76945944129443 H 0.0 **** 0.06
5275 H 77.13711195384718 111.95774555293823 56.022223868851086 H 0.0 **** 0.06
5276 C 31.780403486635635 42.45794907054843 40.49275092613709 C 0.0 **** -0.24
5277 H 32.14069470451369 42.95457751956085 41.393114605457015 H 0.0 **** 0.06
5278 H 32.52974596423829 42.54480807851821 39.705074068158865 H 0.0 **** 0.06
5279 H 30.853189187425045 42.92800166355633 40.1647759258077 H 0.0 **** 0.06
5280 H 31.59877649280446 41.4055428640371 40.70659455528698 H 0.0 **** 0.06
5281 C 70.35786683054425 98.57127068859089 46.515914535357524 C 0.0 **** -0.24
5282 H 71.23100090540925 98.64214261217117 47.16412932781833 H 0.0 **** 0.06
5283 H 70.05623791842999 97.52692469649767 46.42501382073186 H 0.0 **** 0.06
5284 H 70.60332975752715 98.96583114882756 45.52968615852001 H 0.0 **** 0.06
5285 H 69.53959330966251 99.14973673891475 46.94513811553384 H 0.0 **** 0.06
5286 C 5.370148622793124 81.89225884461356 62.083187961484214 C 0.0 **** -0.24
5287 H 5.611608611493523 82.1933947812077 63.10242031735277 H 0.0 **** 0.06
5288 H 6.0906012476792455 81.14819847526994 61.743896708419015 H 0.0 **** 0.06
5289 H 5.411454235387737 82.76346533539294 61.42911571010109 H 0.0 **** 0.06
5290 H 4.367679157092994 81.4665262890411 62.05871191495862 H 0.0 **** 0.06
5291 C 85.9378985411573 103.39607451001851 24.526839090605165 C 0.0 **** -0.24
5292 H 86.9376672672496 103.54164541588193 24.120086234264534 H 0.0 **** 0.06
5293 H 86.0089781044282 102.91587593982655 25.503057534074145 H 0.0 **** 0.06
5294 H 85.3597226253502 102.76441917130938 23.852133557869507 H 0.0 **** 0.06
5295 H 85.44388849129504 104.36251819347677 24.631649016039034 H 0.0 **** 0.06
5296 C 58.70937682945021 108.98142556200622 71.44954001959115 C 0.0 **** -0.24
5297 H 59.43437256584161 109.79535079602307 71.45393159213847 H 0.0 **** 0.06
5298 H 57.70528948187177 109.38954572042329 71.56688544261442 H 0.0 **** 0.06
5299 H 58.9234716881345 108.30097822076091 72.27361780007993 H 0.0 **** 0.06
5300 H 58.7747766520655 108.44069362733116 70.50574703983386 H 0.0 **** 0.06
5301 C 70.16851227004304 1.6824130215998991 67.58790349936118 C 0.0 **** -0.24
5302 H 69.7863867579772 2.329603825051265 66.79786704484599 H 0.0 **** 0.06
5303 H 69.389534987165 1.5214354169747537 68.33380365962495 H 0.0 **** 0.06
5304 H 71.03095927586787 2.1554558177799947 68.05923794297425 H 0.0 **** 0.06
5305 H 70.46803781312309 0.725446409235758 67.1607562961384 H 0.0 **** 0.06
5306 C 45.693724789241465 54.48773510736582 44.13440869683441 C 0.0 **** -0.24
5307 H 45.6694992925693 55.181871658786946 44.97407287130713 H 0.0 **** 0.06
5308 H 44.7860552538136 54.602341586243966 43.54218176557512 H 0.0 **** 0.06
5309 H 45.75490928620077 53.46560546285044 44.51121099415687 H 0.0 **** 0.06
5310 H 46.56354137296721 54.69825772515778 43.513774655330394 H 0.0 **** 0.06
5311 C 67.88790035299132 76.86244943893544 36.63431318855396 C 0.0 **** -0.24
5312 H 66.87105327916305 76.99432322970276 37.00499736629486 H 0.0 **** 0.06
5313 H 67.93927148223105 77.18572613721133 35.59422683643261 H 0.0 **** 0.06
5314 H 68.1664644270758 75.81078171779237 36.70316421833594 H 0.0 **** 0.06
5315 H 68.57349019816127 77.4597401845605 37.23567309517853 H 0.0 **** 0.06
5316 C 80.9843438486771 108.33240857955654 40.32022918762232 C 0.0 **** -0.24
5317 H 81.75265741336443 108.20190978309509 41.082778701224186 H 0.0 **** 0.06
5318 H 80.2032910104958 108.9912736658169 40.70143612497759 H 0.0 **** 0.06
5319 H 80.55240557489705 107.3632022356681 40.07013960062909 H 0.0 **** 0.06
5320 H 81.4285420519497 108.77409469973875 39.42831007317966 H 0.0 **** 0.06
5321 C 75.74268575078662 52.599020275883674 23.38773430683979 C 0.0 **** -0.24
5322 H 76.51050602000765 53.2687327141046 22.998387723522654 H 0.0 **** 0.06
5323 H 74.84378958822205 53.172231596569304 23.618478664010894 H 0.0 **** 0.06
5324 H 76.10768878763923 52.11538192842568 24.293599694338766 H 0.0 **** 0.06
5325 H 75.50805457941294 51.84208004352877 22.640401718365695 H 0.0 **** 0.06
5326 C 106.71814551564518 43.13423626968976 32.785698053972425 C 0.0 **** -0.24
5327 H 107.37271530844384 43.928629251714376 32.425944507882505 H 0.0 **** 0.06
5328 H 105.93823711560992 42.94484437357964 32.048558343436625 H 0.0 **** 0.06
5329 H 106.26168749494781 43.438943360180545 33.72752609659541 H 0.0 **** 0.06
5330 H 107.30068962355767 42.22644253827223 32.94164443634091 H 0.0 **** 0.06
5331 C 59.327488812781006 106.22434716640143 36.688886469192816 C 0.0 **** -0.24
5332 H 58.54842583576205 105.88910386169084 37.373753032346876 H 0.0 **** 0.06
5333 H 60.302070725613554 105.91219582681083 37.06709824887764 H 0.0 **** 0.06
5334 H 59.29894903517724 107.31124606282731 36.61021834401187 H 0.0 **** 0.06
5335 H 59.16206822950962 105.78379780953878 35.705692345226595 H 0.0 **** 0.06
5336 C 29.723660276112497 59.38849819396509 3.331218058186934 C 0.0 **** -0.24
5337 H 29.423598259292277 60.38503282111182 3.6571413361324687 H 0.0 **** 0.06
5338 H 29.225056019934073 58.63961723207396 3.9474157119741022 H 0.0 **** 0.06
5339 H 30.80355478395387 59.28291702995088 3.4330308068093984 H 0.0 **** 0.06
5340 H 29.44111963763737 59.247408205187384 2.2878433377012897 H 0.0 **** 0.06
5341 C 49.16612164407548 102.83970744126566 27.159528350829078 C 0.0 **** -0.24
5342 H 49.64639044320936 103.70942828677795 26.710149921403968 H 0.0 **** 0.06
5343 H 49.70932821247835 102.54995824176615 28.059559722967606 H 0.0 **** 0.06
5344 H 49.17227418398798 102.01371934969535 26.44901645586299 H 0.0 **** 0.06
5345 H 48.13684195099552 103.08785595547107 27.41996463630528 H 0.0 **** 0.06
5346 C 100.09722388454037 6.581396740672062 32.28204970203714 C 0.0 **** -0.24
5347 H 99.85977887908294 7.1434491321394376 31.37866584985798 H 0.0 **** 0.06
5348 H 99.25099444449219 5.948681174045248 32.54950648083508 H 0.0 **** 0.06
5349 H 100.30519004566759 7.274165321296948 33.09674233803679 H 0.0 **** 0.06
5350 H 100.9743054369078 5.959292904652102 32.101519368558826 H 0.0 **** 0.06
5351 C 108.15703360327251 60.22248784108563 12.25502699585767 C 0.0 **** -0.24
5352 H 108.11561299171547 59.61162960643586 13.156022477407685 H 0.0 **** 0.06
5353 H 107.59503602996682 59.73274152436661 11.458070398914327 H 0.0 **** 0.06
5354 H 109.19485261311934 60.3454295675837 11.945845162802467 H 0.0 **** 0.06
5355 H 107.72042631886819 61.20089909717422 12.459413817411495 H 0.0 **** 0.06
5356 C 109.67933670146063 35.35407699598038 31.617965069106134 C 0.0 **** -0.24
5357 H 109.94889525115957 36.03157072935704 30.807826307829345 H 0.0 **** 0.06
5358 H 108.79608008140174 34.782468231663 31.334958904472927 H 0.0 **** 0.06
5359 H 109.46667778278754 35.930927250404125 32.51796748648266 H 0.0 **** 0.06
5360 H 110.5080935842564 34.671647866450655 31.810723967472498 H 0.0 **** 0.06
5361 C 82.99213294933509 84.8246328328922 93.09861098888072 C 0.0 **** -0.24
5362 H 82.7084172430603 83.9498971876694 93.68527139877335 H 0.0 **** 0.06
5363 H 83.08865349814675 84.54247003453406 92.049963595126 H 0.0 **** 0.06
5364 H 83.94394782123771 85.21124958533733 93.46120891762027 H 0.0 **** 0.06
5365 H 82.22495477353422 85.59293690665527 93.19988262178927 H 0.0 **** 0.06
5366 C 81.23580149637152 102.59596829445326 27.981884907539467 C 0.0 **** -0.24
5367 H 80.6164804922766 102.4562393592503 28.868280838661207 H 0.0 **** 0.06
5368 H 81.92980324039368 103.41954728550408 28.150951868515335 H 0.0 **** 0.06
5369 H 80.59960188872822 102.82559333490198 27.127529741399513 H 0.0 **** 0.06
5370 H 81.79552106843622 101.68174747863603 27.783059055388264 H 0.0 **** 0.06
5371 C 27.67438074466358 16.85645545249085 20.00590696570421 C 0.0 **** -0.24
5372 H 28.44892626509781 17.61555042109694 20.118154422610367 H 0.0 **** 0.06
5373 H 27.151937168071186 17.00883612901157 19.061043866872318 H 0.0 **** 0.06
5374 H 26.966385721930692 16.93460025564329 20.830447309022315 H 0.0 **** 0.06
5375 H 28.13238190863177 15.867000870390058 20.01325511278896 H 0.0 **** 0.06
5376 C 66.54075632313447 59.831994857708 16.330768180930146 C 0.0 **** -0.24
5377 H 66.62779886900475 59.13168369284304 17.16226462156283 H 0.0 **** 0.06
5378 H 66.93388864674779 59.37070067259367 15.42535944210712 H 0.0 **** 0.06
5379 H 67.10871748502683 60.735050613375165 16.55632274047379 H 0.0 **** 0.06
5380 H 65.49242966325093 60.08969551214099 16.182326479811405 H 0.0 **** 0.06
5381 C 92.881420774616 21.975259159018947 3.692867715550449 C 0.0 **** -0.24
5382 H 92.5340070465634 22.781143547088618 3.045312681525388 H 0.0 **** 0.06
5383 H 92.45919688184443 21.029601043218577 3.3539354756632633 H 0.0 **** 0.06
5384 H 92.56308374743685 22.170301132217162 4.717222921751443 H 0.0 **** 0.06
5385 H 93.96971944712226 21.92296771034927 3.6548148523053214 H 0.0 **** 0.06
5386 C 34.868807559436675 12.324218975167508 16.267022566840808 C 0.0 **** -0.24
5387 H 34.819613404273 13.348008215302535 16.63609280598189 H 0.0 **** 0.06
5388 H 34.263378685774896 12.233594237145866 15.364391133313205 H 0.0 **** 0.06
5389 H 34.489327959033645 11.644077907078941 17.028621323746677 H 0.0 **** 0.06
5390 H 35.90356788022683 12.071067257028158 16.0368516340736 H 0.0 **** 0.06
5391 C 56.36705073949929 17.83726874274791 54.01214404246261 C 0.0 **** -0.24
5392 H 55.76446369313578 17.17214245170743 53.39316077212112 H 0.0 **** 0.06
5393 H 56.542443193132925 17.370121386925945 54.98181836426852 H 0.0 **** 0.06
5394 H 55.837742614231075 18.77995662174206 54.15262139670841 H 0.0 **** 0.06
5395 H 57.32051801100101 18.026044014630003 53.520615458935794 H 0.0 **** 0.06
5396 C 40.02264374810565 60.819395072813116 105.53131782386961 C 0.0 **** -0.24
5397 H 40.3602155160508 59.954339497615116 104.96025078795407 H 0.0 **** 0.06
5398 H 40.876151959980774 61.45633631775845 105.76333283786121 H 0.0 **** 0.06
5399 H 39.5579217988257 60.48254898109956 106.45866602385706 H 0.0 **** 0.06
5400 H 39.29726998239727 61.381398494047964 104.94415654376502 H 0.0 **** 0.06
5401 C 101.12021408474814 69.31610529580101 12.241753525714493 C 0.0 **** -0.24
5402 H 100.98879979444311 69.90009140639631 13.152449343465324 H 0.0 **** 0.06
5403 H 101.0783227144729 68.25349590690075 12.482991676514398 H 0.0 **** 0.06
5404 H 102.08653346697946 69.5504058962571 11.796728367678178 H 0.0 **** 0.06
5405 H 100.32554463609702 69.56042027704004 11.536649943497537 H 0.0 **** 0.06
5406 C 62.593688930512826 72.35168731961207 68.60171519998693 C 0.0 **** -0.24
5407 H 61.95986052801146 71.47473150081692 68.73195120825753 H 0.0 **** 0.06
5408 H 62.26677462857529 72.90771585776139 67.7226379939315 H 0.0 **** 0.06
5409 H 63.62778147249884 72.03482731930015 68.46859229210995 H 0.0 **** 0.06
5410 H 62.51883182370457 72.9888869681352 69.48306043759558 H 0.0 **** 0.06
5411 C 39.44923549285811 4.465662419916455 61.033121310038894 C 0.0 **** -0.24
5412 H 40.057697183730696 5.332208560210901 61.29296275780888 H 0.0 **** 0.06
5413 H 39.29190921691316 3.8537119102165036 61.92113954733219 H 0.0 **** 0.06
5414 H 39.96276691903507 3.876855956225384 60.27209312681026 H 0.0 **** 0.06
5415 H 38.48691593015843 4.800293791029432 60.64572965446706 H 0.0 **** 0.06
5416 C 96.21551603763041 82.87636005255823 46.64280127100591 C 0.0 **** -0.24
5417 H 97.22634361511709 82.87577565952077 46.235455430051786 H 0.0 **** 0.06
5418 H 95.51513345353237 83.20771768707064 45.87577925367822 H 0.0 **** 0.06
5419 H 96.16806741763835 83.55351166012662 47.49583159757097 H 0.0 **** 0.06
5420 H 95.95301224634025 81.86839366533366 46.963269496004045 H 0.0 **** 0.06
5421 C 8.58965950128055 31.692704854172405 5.169846143657271 C 0.0 **** -0.24
5422 H 7.67198166745213 31.610523850839854 4.587505985122055 H 0.0 **** 0.06
5423 H 9.184282224951374 30.78871175243711 5.039122523247617 H 0.0 **** 0.06
5424 H 8.341578211844478 31.8165867883925 6.224019437700202 H 0.0 **** 0.06
5425 H 9.159985353435175 32.556587878121036 4.82739034371583 H 0.0 **** 0.06
5426 C 4.013787584447343 77.3973312537563 101.67474834417408 C 0.0 **** -0.24
5427 H 4.90804149466646 77.5511735587204 101.0706457949168 H 0.0 **** 0.06
5428 H 4.234773526400948 77.63618442093835 102.71566373014116 H 0.0 **** 0.06
5429 H 3.698787283273525 76.35727376787614 101.59950513077024 H 0.0 **** 0.06
5430 H 3.2157495424449287 78.04575830942017 101.31459981115961 H 0.0 **** 0.06
5431 C 29.202389241361658 16.559446544600405 15.476045860771706 C 0.0 **** -0.24
5432 H 29.509832111950715 16.990853206849494 16.428730788054963 H 0.0 **** 0.06
5433 H 29.873958757340148 16.903830076966642 14.689084741310467 H 0.0 **** 0.06
5434 H 28.183480534993606 16.873242617889986 15.247070933772306 H 0.0 **** 0.06
5435 H 29.241580655628084 15.472718026584317 15.539877397276257 H 0.0 **** 0.06
5436 C 40.0776124511435 13.862689479173333 90.22581998456835 C 0.0 **** -0.24
5437 H 39.543933388463806 13.30409002993878 90.99539828436016 H 0.0 **** 0.06
5438 H 40.95021548229977 14.345083940305202 90.66652730058362 H 0.0 **** 0.06
5439 H 39.41702844343618 14.620499225008288 89.80549094275796 H 0.0 **** 0.06
5440 H 40.39813256126917 13.18130348878254 89.43862985467905 H 0.0 **** 0.06
5441 C 9.170377661853593 41.39946651142753 19.93525649107505 C 0.0 **** -0.24
5442 H 9.962350875459663 41.80768789119563 20.563235894119885 H 0.0 **** 0.06
5443 H 8.28179383934318 41.222463110022915 20.542315838588678 H 0.0 **** 0.06
5444 H 9.503243367326192 40.45956977300557 19.49501232215286 H 0.0 **** 0.06
5445 H 8.93338082521828 42.108875078756625 19.14267946290215 H 0.0 **** 0.06
5446 C 95.65299676791074 10.463924594703865 26.959138055008367 C 0.0 **** -0.24
5447 H 96.28279816460076 9.835383656332944 27.58910226482447 H 0.0 **** 0.06
5448 H 94.6631605299441 10.550531318080221 27.4084218690909 H 0.0 **** 0.06
5449 H 95.56560758684435 10.01487380186353 25.96986210889586 H 0.0 **** 0.06
5450 H 96.10110610437988 11.45309330268292 26.871453314078835 H 0.0 **** 0.06
5451 C 62.320606833497386 7.666538682710382 95.368853481587 C 0.0 **** -0.24
5452 H 63.355265713253324 7.344053522953089 95.24733895219828 H 0.0 **** 0.06
5453 H 61.99175625794222 7.457487167866475 96.38692379581244 H 0.0 **** 0.06
5454 H 61.687690967758904 7.127632734271629 94.66358453106216 H 0.0 **** 0.06
5455 H 62.25003806633325 8.737531503287187 95.177020593512 H 0.0 **** 0.06
5456 C 96.68086291214001 1.1196033139258645 0.5617352275708924 C 0.0 **** -0.24
5457 H 95.96054407777913 1.8776524038079287 0.8666592372168793 H 0.0 **** 0.06
5458 H 96.19843860537821 0.4096227052676511 -0.11132629305927821 H 0.0 **** 0.06
5459 H 97.0482411408291 0.5925293934882347 1.4421116777831458 H 0.0 **** 0.06
5460 H 97.51656200288556 1.5965194566691423 0.04877279077396679 H 0.0 **** 0.06
5461 C 43.47180344383764 1.7913760534254948 52.535484699836125 C 0.0 **** -0.24
5462 H 43.897832104419535 0.8292964508269733 52.24849012580195 H 0.0 **** 0.06
5463 H 42.38344738058527 1.7311296119375754 52.49849935443842 H 0.0 **** 0.06
5464 H 43.817520347034815 2.5614432201442696 51.84774301550369 H 0.0 **** 0.06
5465 H 43.786900127802156 2.039636521719018 53.54913563908244 H 0.0 **** 0.06
5466 C 18.77847074431567 95.10481290312299 30.130849210034796 C 0.0 **** -0.24
5467 H 19.836189337848918 95.22962592950574 30.360111957352473 H 0.0 **** 0.06
5468 H 18.647113390617356 94.24161527672115 29.477598454377414 H 0.0 **** 0.06
5469 H 18.407369556902466 95.9995572596734 29.63064339562422 H 0.0 **** 0.06
5470 H 18.222490162890836 94.94848676850873 31.05625951170785 H 0.0 **** 0.06
5471 C 94.56979987709317 56.98056624483206 75.09855216563193 C 0.0 **** -0.24
5472 H 94.40808086292805 56.57715944881994 74.09969120302281 H 0.0 **** 0.06
5473 H 95.63950107807202 57.01324878190758 75.30760630896594 H 0.0 **** 0.06
5474 H 94.07620459602882 56.34254376639785 75.83178911164924 H 0.0 **** 0.06
5475 H 94.15628599991359 57.98734806577045 75.15573621162298 H 0.0 **** 0.06
5476 C 83.86919911981676 7.953244223123335 34.946824713433124 C 0.0 **** -0.24
5477 H 83.65710534459717 6.884193435314415 34.95345959600803 H 0.0 **** 0.06
5478 H 84.87622560422025 8.126122060471971 35.32735637040333 H 0.0 **** 0.06
5479 H 83.14755504116536 8.469863376424001 35.580670072280704 H 0.0 **** 0.06
5480 H 83.79465322013897 8.332623597149535 33.92790785470813 H 0.0 **** 0.06
5481 C 43.31214414501264 40.809560979632806 44.86149713784948 C 0.0 **** -0.24
5482 H 43.427455579614985 41.236485226337294 45.8577718748424 H 0.0 **** 0.06
5483 H 43.4468221880943 39.729272341402606 44.911812635654826 H 0.0 **** 0.06
5484 H 44.05861390620808 41.23898907414022 44.19265123125456 H 0.0 **** 0.06
5485 H 42.31370216030447 41.03360175727573 44.483511916157454 H 0.0 **** 0.06
5486 C 32.86426137475892 19.73411298797303 63.55650985948436 C 0.0 **** -0.24
5487 H 32.955232554744 20.07587570564654 64.58781142089512 H 0.0 **** 0.06
5488 H 33.32552707734228 18.751621722746865 63.45773618604854 H 0.0 **** 0.06
5489 H 33.365412876149776 20.44105713855454 62.89560630493741 H 0.0 **** 0.06
5490 H 31.80991756696845 19.669984950277893 63.28727923870422 H 0.0 **** 0.06
5491 C 35.519708748838354 62.24453787949029 95.7151072250332 C 0.0 **** -0.24
5492 H 35.72487853675142 61.32803904958849 95.16151019910365 H 0.0 **** 0.06
5493 H 36.4564444618041 62.65720387012792 96.0915928870129 H 0.0 **** 0.06
5494 H 34.85860205263481 62.02255395962445 96.55176328629855 H 0.0 **** 0.06
5495 H 35.04227372825005 62.96873187900173 95.05533361295468 H 0.0 **** 0.06
5496 C 0.7844247469545138 33.24855313763018 7.26686135514683 C 0.0 **** -0.24
5497 H 1.8173517804226265 33.54314949259435 7.455996756377488 H 0.0 **** 0.06
5498 H 0.20164169830745493 34.12661798986116 6.988400536957101 H 0.0 **** 0.06
5499 H 0.3631183442685568 32.80320796081773 8.168434430486627 H 0.0 **** 0.06
5500 H 0.7574882373245941 32.52147612060011 6.455766553897945 H 0.0 **** 0.06
5501 C 12.128316747838568 102.67554541330901 16.93273817680239 C 0.0 **** -0.24
5502 H 13.135422411063416 102.51116787195531 16.548867590407355 H 0.0 **** 0.06
5503 H 12.031870935694656 103.7086968689855 17.26781833820678 H 0.0 **** 0.06
5504 H 11.945867410334245 102.00280704733245 17.771100720522213 H 0.0 **** 0.06
5505 H 11.402971853305473 102.47884850734374 16.14375880094218 H 0.0 **** 0.06
5506 C 52.91254667750236 100.47975996356112 90.80732207919999 C 0.0 **** -0.24
5507 H 51.974519441567224 100.7919315130012 91.26766682383817 H 0.0 **** 0.06
5508 H 53.241923613729114 99.54195079534244 91.25271301769013 H 0.0 **** 0.06
5509 H 53.669195645587365 101.24681150210125 90.97173210159607 H 0.0 **** 0.06
5510 H 52.762251955049784 100.3410517432884 89.73598973131641 H 0.0 **** 0.06
5511 C 56.96056816079497 73.88497504998347 36.2408509359059 C 0.0 **** -0.24
5512 H 56.14071631801328 73.20287079584617 36.01261813346757 H 0.0 **** 0.06
5513 H 56.55651871852168 74.84079830005564 36.57319609898429 H 0.0 **** 0.06
5514 H 57.5655104460134 74.03619930500702 35.34646875679924 H 0.0 **** 0.06
5515 H 57.57961704011107 73.45717850697696 37.03019817284331 H 0.0 **** 0.06
5516 C 92.8606752264204 110.60384567698739 67.66669079948738 C 0.0 **** -0.24
5517 H 93.90429184255444 110.36587219321657 67.87297066156682 H 0.0 **** 0.06
5518 H 92.71833259777333 111.68381938943871 67.7170972012922 H 0.0 **** 0.06
5519 H 92.22455091559189 110.1185228270241 68.40647451547261 H 0.0 **** 0.06
5520 H 92.59785267263231 110.24889333383628 66.67100137195754 H 0.0 **** 0.06
5521 C 73.26110468094339 101.37987086111195 46.016023293508624 C 0.0 **** -0.24
5522 H 73.99792238916515 101.61929430378967 46.7837084845697 H 0.0 **** 0.06
5523 H 72.71814148311174 100.4794649685941 46.304053859333834 H 0.0 **** 0.06
5524 H 73.76900331844911 101.21110202543613 45.06640629161353 H 0.0 **** 0.06
5525 H 72.56181291376069 102.20922390985422 45.913208435099136 H 0.0 **** 0.06
5526 C 34.83517262839156 7.061014446901623 47.25076449271778 C 0.0 **** -0.24
5527 H 34.89116534665785 6.111406986672733 47.782202948318414 H 0.0 **** 0.06
5528 H 34.20406047835653 6.947476295138372 46.36936337543681 H 0.0 **** 0.06
5529 H 35.83639814883611 7.365101392697241 46.944583160154565 H 0.0 **** 0.06
5530 H 34.41029831541757 7.820766706022923 47.906866404629994 H 0.0 **** 0.06
5531 C 74.84265639113798 20.242658428107205 109.1727430663723 C 0.0 **** -0.24
5532 H 74.03007725004647 19.686170178030153 108.70705939235182 H 0.0 **** 0.06
5533 H 75.4302070712603 19.572569656871053 109.79977941885738 H 0.0 **** 0.06
5534 H 74.42987055963701 21.04427340742882 109.78516585205122 H 0.0 **** 0.06
5535 H 75.48111065350585 20.669865131666683 108.3982244512896 H 0.0 **** 0.06
5536 C 0.7382037689598349 4.539180292146455 78.35527786801413 C 0.0 **** -0.24
5537 H 1.705256181314212 4.200437394746416 78.72767456519921 H 0.0 **** 0.06
5538 H 0.16137042851016759 3.6798643052766664 78.01143081644898 H 0.0 **** 0.06
5539 H 0.8892751100021314 5.231129414191614 77.52759183366697 H 0.0 **** 0.06
5540 H 0.19717462628324256 5.043046534703777 79.15684303859834 H 0.0 **** 0.06
5541 C 3.8064775008546263 76.57862670918985 42.631348302654146 C 0.0 **** -0.24
5542 H 4.702940589114533 77.15703399475737 42.85733812422393 H 0.0 **** 0.06
5543 H 3.852551882815604 76.22594055829865 41.60078338632604 H 0.0 **** 0.06
5544 H 2.9266346085297528 77.2087756351128 42.76121055332055 H 0.0 **** 0.06
5545 H 3.745245855000036 75.72572991849316 43.30591930215047 H 0.0 **** 0.06
5546 C 78.40236800850971 88.25621526806941 89.49548868704744 C 0.0 **** -0.24
5547 H 79.23518793375123 87.69915333683844 89.92576466827876 H 0.0 **** 0.06
5548 H 77.81216628464844 87.59379295745396 88.86205359718173 H 0.0 **** 0.06
5549 H 78.78838867583764 89.08228182284611 88.89853017793405 H 0.0 **** 0.06
5550 H 77.77552189143736 88.64812519902486 90.29632258226351 H 0.0 **** 0.06
5551 C 72.84140117401981 56.49173999880022 76.55159030070217 C 0.0 **** -0.24
5552 H 72.43553424823799 57.47904132483086 76.77123205219044 H 0.0 **** 0.06
5553 H 73.61119061197917 56.2447315861284 77.28303304148946 H 0.0 **** 0.06
5554 H 73.27563800827991 56.492888472509804 75.55137557727497 H 0.0 **** 0.06
5555 H 72.04318431809014 55.75170933555015 76.60080216772025 H 0.0 **** 0.06
5556 C 12.275088178206627 66.72586335165144 74.22394818004372 C 0.0 **** -0.24
5557 H 11.412608397246618 66.95111270325194 73.59627965795428 H 0.0 **** 0.06
5558 H 12.553049947020355 67.61554384353988 74.79093529629131 H 0.0 **** 0.06
5559 H 13.111601883329044 66.41937353435719 73.59568293343926 H 0.0 **** 0.06
5560 H 12.023440592604551 65.9197887481705 74.91236197511435 H 0.0 **** 0.06
5561 C 72.63873558820956 82.73031185404395 15.604652979777654 C 0.0 **** -0.24
5562 H 72.82688047407004 83.22854516745696 16.555777296925612 H 0.0 **** 0.06
5563 H 73.29578239212216 83.14620059035511 14.839968390741433 H 0.0 **** 0.06
5564 H 71.59922353387509 82.88396312979782 15.3143231918217 H 0.0 **** 0.06
5565 H 72.83249430408398 81.66212326252392 15.709772762482885 H 0.0 **** 0.06
5566 C 20.757605719824966 50.10034851633036 17.484793151985116 C 0.0 **** -0.24
5567 H 20.032600630445927 49.58147215072929 16.85715920910053 H 0.0 **** 0.06
5568 H 20.920686804538065 51.10503131258859 17.095463731489076 H 0.0 **** 0.06
5569 H 21.699191182640618 49.550737743055954 17.479670979157163 H 0.0 **** 0.06
5570 H 20.377439551015414 50.162448240322135 18.504462068032524 H 0.0 **** 0.06
5571 C 65.81595256154614 57.270561284110045 67.65877443184104 C 0.0 **** -0.24
5572 H 65.67434509215141 56.58387684259583 68.49251306775662 H 0.0 **** 0.06
5573 H 66.8002591523101 57.1103919050168 67.21922048354241 H 0.0 **** 0.06
5574 H 65.74025527242867 58.29770539814774 68.01679444001459 H 0.0 **** 0.06
5575 H 65.0478780961823 57.09118949025441 66.90649272835137 H 0.0 **** 0.06
5576 C 69.05288306021811 70.92364724773032 67.16861271576272 C 0.0 **** -0.24
5577 H 68.87000264681285 69.88320443300597 66.90297611408454 H 0.0 **** 0.06
5578 H 69.4703064208116 71.4501193814466 66.31075190133899 H 0.0 **** 0.06
5579 H 69.75604977941472 70.96755162919092 67.99995519988579 H 0.0 **** 0.06
5580 H 68.11372727602475 71.39353187241915 67.46246353133066 H 0.0 **** 0.06
5581 C 27.442797496398782 95.5503150879768 3.230380250141735 C 0.0 **** -0.24
5582 H 28.431539442034847 95.36508470715722 3.6493509222302123 H 0.0 **** 0.06
5583 H 27.070424352246675 96.50996230000692 3.589864463958577 H 0.0 **** 0.06
5584 H 26.762329152498864 94.75660787405721 3.5399495043269837 H 0.0 **** 0.06
5585 H 27.506897038814543 95.56960547068593 2.1423561100513098 H 0.0 **** 0.06
5586 C 10.019419224320785 18.315434655788238 97.23370524657273 C 0.0 **** -0.24
5587 H 10.631682605498725 17.412885061539214 97.24425300114666 H 0.0 **** 0.06
5588 H 10.309161475893887 18.94065758819312 96.38941970378895 H 0.0 **** 0.06
5589 H 10.168804214003046 18.865164961521543 98.16267137684599 H 0.0 **** 0.06
5590 H 8.96885447323561 18.040148693874983 97.13858029617785 H 0.0 **** 0.06
5591 C 103.44492880658999 6.4656531071825345 23.437216295080532 C 0.0 **** -0.24
5592 H 103.86938225079894 7.435422520142982 23.69726043880098 H 0.0 **** 0.06
5593 H 103.38469836814363 6.3752572539570735 22.352864762508915 H 0.0 **** 0.06
5594 H 102.44715853286834 6.379837530260668 23.866312434301932 H 0.0 **** 0.06
5595 H 104.08055522389816 5.674285451720143 23.83379875878464 H 0.0 **** 0.06
5596 C 105.89768834169777 85.28621682645604 92.33657584222854 C 0.0 **** -0.24
5597 H 106.14686355182153 85.15555180672555 93.38959994089907 H 0.0 **** 0.06
5598 H 104.81407440820243 85.30203459056719 92.21920446888083 H 0.0 **** 0.06
5599 H 106.31500572722422 84.46119619960217 91.75995854348739 H 0.0 **** 0.06
5600 H 106.31642967928418 86.22764473313902 91.97925575208436 H 0.0 **** 0.06
5601 C 6.346820144384665 85.29990169110374 64.62347015320222 C 0.0 **** -0.24
5602 H 5.90542443472539 84.44725917782841 64.1084022875084 H 0.0 **** 0.06
5603 H 7.414113515689763 85.34436888112134 64.40437890625333 H 0.0 **** 0.06
5604 H 6.201209296263798 85.19016359998338 65.69810098306345 H 0.0 **** 0.06
5605 H 5.867157225023732 86.21809418669486 64.28423657297003 H 0.0 **** 0.06
5606 C 66.8509373355109 54.927299753250956 80.76759982564423 C 0.0 **** -0.24
5607 H 65.82127279592348 54.58561253559164 80.66345495512698 H 0.0 **** 0.06
5608 H 67.39498722471475 54.245163053829444 81.42243701538811 H 0.0 **** 0.06
5609 H 66.86040544620326 55.92890506603696 81.19823839666049 H 0.0 **** 0.06
5610 H 67.32759900781181 54.94918729141259 79.78788918346294 H 0.0 **** 0.06
5611 C 22.47935711833526 80.56331990784906 19.364340605090124 C 0.0 **** -0.24
5612 H 22.950928356856366 81.5432004627495 19.43958062585174 H 0.0 **** 0.06
5613 H 22.851812863775933 80.04911334392636 18.47780703433112 H 0.0 **** 0.06
5614 H 21.399466774053224 80.68470672110766 19.28774817926003 H 0.0 **** 0.06
5615 H 22.71783748190728 79.97732678488484 20.2521179325437 H 0.0 **** 0.06
5616 C 70.54430870099472 53.637961769452936 84.56358428192158 C 0.0 **** -0.24
5617 H 70.40107370863691 54.6500272796124 84.94436325360033 H 0.0 **** 0.06
5618 H 70.3001449704708 52.91870128327426 85.34527271662495 H 0.0 **** 0.06
5619 H 71.5828759402226 53.507220854751296 84.2598701329303 H 0.0 **** 0.06
5620 H 69.89196682501264 53.478608656912954 83.70535469843591 H 0.0 **** 0.06
5621 C 102.62496655397032 26.92508325865964 82.21867414489463 C 0.0 **** -0.24
5622 H 102.89460624244722 26.529647631150766 81.24018428665119 H 0.0 **** 0.06
5623 H 102.4829805221305 26.09984661580677 82.91658663836708 H 0.0 **** 0.06
5624 H 101.70004927425987 27.495676632827895 82.13755330962007 H 0.0 **** 0.06
5625 H 103.42191521765565 27.574213357055953 82.58034704578498 H 0.0 **** 0.06
5626 C 86.23828566963707 99.89150228493983 16.234010811951123 C 0.0 **** -0.24
5627 H 86.55537756175494 99.31559222139293 17.102763742920132 H 0.0 **** 0.06
5628 H 85.3005863162393 99.48715973788862 15.851680503154384 H 0.0 **** 0.06
5629 H 87.00235960953432 99.8307045147437 15.458929497544418 H 0.0 **** 0.06
5630 H 86.09442667620044 100.93271970979634 16.52132111928259 H 0.0 **** 0.06
5631 C 92.43008820311135 9.840652927809092 23.526401882239924 C 0.0 **** -0.24
5632 H 91.61702845532955 9.259698795812586 23.961647247114648 H 0.0 **** 0.06
5633 H 92.13023253174981 10.204743605291672 22.54330575627287 H 0.0 **** 0.06
5634 H 93.31297049412024 9.209806974978187 23.427000726249233 H 0.0 **** 0.06
5635 H 92.65899400428341 10.686484038130953 24.174102595302674 H 0.0 **** 0.06
5636 C 94.04964555310846 24.45317505764092 26.111537762453708 C 0.0 **** -0.24
5637 H 93.96376469183608 25.403974838709956 26.637227427021315 H 0.0 **** 0.06
5638 H 93.05705557377544 24.110612474025544 25.81559601826666 H 0.0 **** 0.06
5639 H 94.50856150703885 23.714605046629572 26.768371716164268 H 0.0 **** 0.06
5640 H 94.66850117340724 24.584164320634187 25.223513573957177 H 0.0 **** 0.06
5641 C 13.512328035094384 19.86300512857113 45.344171034715856 C 0.0 **** -0.24
5642 H 13.735404788572623 20.828929116893477 45.79718427332482 H 0.0 **** 0.06
5643 H 14.411215748271758 19.46865564444846 44.870008861332536 H 0.0 **** 0.06
5644 H 12.729974407520217 19.98562694160219 44.5954073452333 H 0.0 **** 0.06
5645 H 13.173696602341522 19.17081733637525 46.11416656884316 H 0.0 **** 0.06
5646 C 22.077257294920692 10.479850454864504 88.59159110685326 C 0.0 **** -0.24
5647 H 21.993990521798214 11.561373029582796 88.47903435617098 H 0.0 **** 0.06
5648 H 23.12911452422018 10.200828554349641 88.64861306934785 H 0.0 **** 0.06
5649 H 21.616233752680337 9.989267573420022 87.73439619688526 H 0.0 **** 0.06
5650 H 21.56802322711893 10.17042186523716 89.50447884384891 H 0.0 **** 0.06
5651 C 9.84997898107521 53.99754851003604 27.689884872310984 C 0.0 **** -0.24
5652 H 10.883336009522807 53.912796684843784 27.353024676903175 H 0.0 **** 0.06
5653 H 9.253783852329207 53.206554119631676 27.235424085058725 H 0.0 **** 0.06
5654 H 9.450727858146749 54.9678038500528 27.396824426153586 H 0.0 **** 0.06
5655 H 9.813211065226966 53.90289862872373 28.77556022020434 H 0.0 **** 0.06
5656 C 31.38787583324961 83.38069877751488 95.78114012708392 C 0.0 **** -0.24
5657 H 31.06115318540543 83.01515454426897 96.75371660787604 H 0.0 **** 0.06
5658 H 32.42310886857581 83.714145250522 95.84689232633175 H 0.0 **** 0.06
5659 H 30.75618350770266 84.2155740330304 95.47628515578148 H 0.0 **** 0.06
5660 H 31.30898375441558 82.57893700492818 95.04684965543075 H 0.0 **** 0.06
5661 C 68.36271693903382 71.99467897687384 14.29049462177052 C 0.0 **** -0.24
5662 H 68.84497900582403 72.53075648284275 13.471924707487716 H 0.0 **** 0.06
5663 H 69.00628531159668 71.1771463583213 14.616679545463427 H 0.0 **** 0.06
5664 H 67.40918447349458 71.59237704124178 13.948792464805138 H 0.0 **** 0.06
5665 H 68.19224376242664 72.67807676688344 15.121334948907545 H 0.0 **** 0.06
5666 C 92.17905818826196 45.45457509538255 94.62488761256674 C 0.0 **** -0.24
5667 H 91.95658371228325 46.4807826576137 94.91798752600494 H 0.0 **** 0.06
5668 H 91.32103490527894 44.81996154179393 94.84560246863339 H 0.0 **** 0.06
5669 H 93.0470651237178 45.098771675061286 95.18045966842621 H 0.0 **** 0.06
5670 H 92.39215516996481 45.419796084070896 93.55676942992787 H 0.0 **** 0.06
5671 C 103.31846673734384 25.04979717290813 7.0123921228818915 C 0.0 **** -0.24
5672 H 103.50806607241381 24.67523010867032 8.018853776024208 H 0.0 **** 0.06
5673 H 102.72261109195031 25.96159954901215 7.071772014060517 H 0.0 **** 0.06
5674 H 102.77562970593385 24.29740141120746 6.440636982475738 H 0.0 **** 0.06
5675 H 104.26666298634288 25.266451317740575 6.521617047100676 H 0.0 **** 0.06
5676 C 50.746623954185715 68.30398619463148 92.43014185435456 C 0.0 **** -0.24
5677 H 51.53781976108612 67.82860360067986 91.85009875875153 H 0.0 **** 0.06
5678 H 49.83002669538206 67.72047085294173 92.34035468991868 H 0.0 **** 0.06
5679 H 50.57481254206887 69.311347212376 92.05075285133847 H 0.0 **** 0.06
5680 H 51.04475967806004 68.35504194218618 93.47714365373818 H 0.0 **** 0.06
5681 C 73.61298742810413 79.18344660215209 39.595184177914675 C 0.0 **** -0.24
5682 H 72.91970415606869 78.83135397152603 40.36010611211675 H 0.0 **** 0.06
5683 H 74.4786757185228 79.64115564032261 40.0743779119626 H 0.0 **** 0.06
5684 H 73.11396061252407 79.91960864484338 38.9642934393423 H 0.0 **** 0.06
5685 H 73.93720182983992 78.34151133585937 38.98400385652596 H 0.0 **** 0.06
5686 C 104.22491762544783 15.405213646199002 87.73841726382804 C 0.0 **** -0.24
5687 H 105.11403582326531 14.901735904909117 88.11768546785848 H 0.0 **** 0.06
5688 H 103.78283661516369 14.809826586485912 86.93953052505913 H 0.0 **** 0.06
5689 H 104.49945591005931 16.38694373162184 87.35186430895328 H 0.0 **** 0.06
5690 H 103.501899602674 15.522181535106995 88.54701602976098 H 0.0 **** 0.06
5691 C 81.77956299270434 11.97156070585794 1.3191166436475896 C 0.0 **** -0.24
5692 H 81.51213745957918 12.719254449411295 0.5719519493945597 H 0.0 **** 0.06
5693 H 81.41865192782643 12.291150464815132 2.296704991200073 H 0.0 **** 0.06
5694 H 82.86338258321672 11.860757529243301 1.3494172582200719 H 0.0 **** 0.06
5695 H 81.32374711191551 11.017247974145718 1.0573010182768456 H 0.0 **** 0.06
5696 C 30.6483013624307 23.171152613943974 99.88101362244515 C 0.0 **** -0.24
5697 H 30.30991986857544 22.13872473408759 99.96860372472807 H 0.0 **** 0.06
5698 H 31.734318734460032 23.204933681782393 99.96067182827767 H 0.0 **** 0.06
5699 H 30.205836418868287 23.767167348702543 100.67889868467918 H 0.0 **** 0.06
5700 H 30.341921628910896 23.57213995882796 98.91496704662475 H 0.0 **** 0.06
5701 C 25.1552891554054 69.39734730674508 79.75502774252601 C 0.0 **** -0.24
5702 H 25.93653382057021 70.03551989522859 79.34187895415639 H 0.0 **** 0.06
5703 H 25.399656243945 69.14697098631589 80.78844147441103 H 0.0 **** 0.06
5704 H 25.08440518133769 68.48333519440547 79.16646794173067 H 0.0 **** 0.06
5705 H 24.20185850186631 69.92526437350665 79.72451576631337 H 0.0 **** 0.06
5706 C 100.35295911736907 14.3889020236346 61.354369725032 C 0.0 **** -0.24
5707 H 100.55442003626689 13.730727795162252 60.50971090441169 H 0.0 **** 0.06
5708 H 100.7938482529436 13.96526550430005 62.257942845321736 H 0.0 **** 0.06
5709 H 99.2760821180378 14.489640655144854 61.48856745299369 H 0.0 **** 0.06
5710 H 100.78872691699667 15.36985696610796 61.16336646246137 H 0.0 **** 0.06
5711 C 45.8774446085412 7.19237490079216 81.76364193179782 C 0.0 **** -0.24
5712 H 46.56443725922031 7.874019493765957 81.26196459878159 H 0.0 **** 0.06
5713 H 46.18167021403286 7.07173481816038 82.80365403598606 H 0.0 **** 0.06
5714 H 45.89865622184615 6.222917537696176 81.26389100515485 H 0.0 **** 0.06
5715 H 44.86774977419449 7.599595942353105 81.7251103801089 H 0.0 **** 0.06
5716 C 35.69689456751519 98.01848735481653 84.73041197559414 C 0.0 **** -0.24
5717 H 35.373517159688305 99.0504693771044 84.86339129261017 H 0.0 **** 0.06
5718 H 36.28648076001346 97.93825106349499 83.81659213208772 H 0.0 **** 0.06
5719 H 34.8228883739086 97.37102600485076 84.65703360816241 H 0.0 **** 0.06
5720 H 36.304204385677025 97.71585936618266 85.58320998838664 H 0.0 **** 0.06
5721 C 9.918267980810647 39.247196441284615 109.54423547017987 C 0.0 **** -0.24
5722 H 9.023777884312533 39.6922815875885 109.10808745796257 H 0.0 **** 0.06
5723 H 10.40567644933483 39.97395396334812 110.19469447772207 H 0.0 **** 0.06
5724 H 10.6031797030701 38.95518609526394 108.74842126002724 H 0.0 **** 0.06
5725 H 9.640050434828055 38.36807436233329 110.125150899141 H 0.0 **** 0.06
5726 C 34.44924132556423 60.81894284725297 77.5743191085489 C 0.0 **** -0.24
5727 H 33.78102534918875 60.68757759964868 76.72265953656705 H 0.0 **** 0.06
5728 H 34.279636399030466 60.01876311090254 78.29528789462697 H 0.0 **** 0.06
5729 H 34.24966514946678 61.781667151342106 78.04587473279375 H 0.0 **** 0.06
5730 H 35.48282539221347 60.788475466049846 77.2320560413196 H 0.0 **** 0.06
5731 C 70.43565158300376 108.14459073581985 12.003085195491735 C 0.0 **** -0.24
5732 H 71.44367344639608 108.55643634933607 12.044959625057686 H 0.0 **** 0.06
5733 H 69.79181119578922 108.69074681726062 12.692522271916289 H 0.0 **** 0.06
5734 H 70.46104307606305 107.09194296321839 12.285661476609107 H 0.0 **** 0.06
5735 H 70.0466587018964 108.23881231163956 10.989892644089224 H 0.0 **** 0.06
5736 C 8.039754394381475 35.96884327334226 26.322442278360654 C 0.0 **** -0.24
5737 H 9.050202153906639 35.697501724629035 26.018393892883978 H 0.0 **** 0.06
5738 H 7.883293308272243 35.68099505908543 27.36263494985633 H 0.0 **** 0.06
5739 H 7.319157861396292 35.451011846711026 25.689544472755927 H 0.0 **** 0.06
5740 H 7.906364253950528 37.04586446294343 26.219195797946156 H 0.0 **** 0.06
5741 C 58.36538734249439 15.32657080016358 45.801258814447124 C 0.0 **** -0.24
5742 H 58.28260478829816 16.330396292062318 46.2187547557634 H 0.0 **** 0.06
5743 H 58.77556818172505 14.652885855768943 46.55386607461716 H 0.0 **** 0.06
5744 H 59.02431735102127 15.347979090009744 44.93375649864774 H 0.0 **** 0.06
5745 H 57.377614307891065 14.97770991857061 45.49948749756669 H 0.0 **** 0.06
5746 C 14.054311577846633 4.78266010121618 70.95384746904531 C 0.0 **** -0.24
5747 H 13.62388232165307 5.700503595646637 71.35551700768974 H 0.0 **** 0.06
5748 H 13.976412086427771 3.9893071805888383 71.69853217530869 H 0.0 **** 0.06
5749 H 15.103878684331576 4.950482275895325 70.71051427078234 H 0.0 **** 0.06
5750 H 13.51414162284405 4.491949197941864 70.05352702030868 H 0.0 **** 0.06
5751 C 66.79879674593974 45.07662120030727 31.871791374101775 C 0.0 **** -0.24
5752 H 67.58798362866082 45.204855488103746 32.61316339008465 H 0.0 **** 0.06
5753 H 67.24533729232746 44.85603490240463 30.901517859123544 H 0.0 **** 0.06
5754 H 66.21239289211383 45.99277244503223 31.80235217566718 H 0.0 **** 0.06
5755 H 66.15155240016782 44.252002941908614 32.17005277268706 H 0.0 **** 0.06
5756 C 41.13284706064012 110.16376455513654 36.623015624786575 C 0.0 **** -0.24
5757 H 41.41421399151972 111.1812574169254 36.35187302573186 H 0.0 **** 0.06
5758 H 40.13425022415502 109.94937767579793 36.241117647659024 H 0.0 **** 0.06
5759 H 41.1362605766824 110.06259000729196 37.70774572004248 H 0.0 **** 0.06
5760 H 41.84551300815348 109.46226120676334 36.18974703884831 H 0.0 **** 0.06
5761 C 9.098032889688653 52.27716732034364 62.60045610865703 C 0.0 **** -0.24
5762 H 8.289756536001306 52.86949595666633 63.02992385010944 H 0.0 **** 0.06
5763 H 9.584317507080186 52.84718135549244 61.808378651273955 H 0.0 **** 0.06
5764 H 8.691039966396374 51.354461718856356 62.18774012743893 H 0.0 **** 0.06
5765 H 9.82531445838822 52.038489191786965 63.37686817424344 H 0.0 **** 0.06
5766 C 56.22362118994407 1.289401470964549 38.29926567377322 C 0.0 **** -0.24
5767 H 55.802934713200564 1.7844625423476543 37.42429779615412 H 0.0 **** 0.06
5768 H 55.658192987236475 0.381346952065428 38.509440237986496 H 0.0 **** 0.06
5769 H 56.167538804547966 1.9593801975363192 39.157905137339185 H 0.0 **** 0.06
5770 H 57.264662485864044 1.0326973036733307 38.10618456466477 H 0.0 **** 0.06
5771 C 33.55552313748039 102.61419547729349 45.32176004263388 C 0.0 **** -0.24
5772 H 34.54368053834054 103.0515219822403 45.17656394084335 H 0.0 **** 0.06
5773 H 32.936695270832274 103.29934144380246 45.901511271525294 H 0.0 **** 0.06
5774 H 33.65166309887054 101.67012436862197 45.85699847210776 H 0.0 **** 0.06
5775 H 33.09026625688054 102.43670889752568 44.35162294040455 H 0.0 **** 0.06
5776 C 91.26114907609073 31.267259151440612 110.42095100470365 C 0.0 **** -0.24
5777 H 91.72128032164846 30.28426968739035 110.31772130488176 H 0.0 **** 0.06
5778 H 91.26596505224154 31.562002943049265 111.47049772249892 H 0.0 **** 0.06
5779 H 90.23346362626793 31.226827793666587 110.05868954877837 H 0.0 **** 0.06
5780 H 91.82410863110724 31.995033787499324 109.83652563742095 H 0.0 **** 0.06
5781 C 54.594970020268306 109.38090371700699 72.9676001624297 C 0.0 **** -0.24
5782 H 55.45823425456126 109.36212134873227 72.3027043440606 H 0.0 **** 0.06
5783 H 53.74418554054378 109.81852593627346 72.44509277812483 H 0.0 **** 0.06
5784 H 54.828439509832265 109.98027326680474 73.8473555308723 H 0.0 **** 0.06
5785 H 54.35035059042124 108.36430556562864 73.27396900892 H 0.0 **** 0.06
5786 C 10.83932050014073 18.020937620408 27.876354182005542 C 0.0 **** -0.24
5787 H 10.305509523737385 17.893596813062757 26.9350686259139 H 0.0 **** 0.06
5788 H 11.534569547284036 18.85607989425003 27.790072407753513 H 0.0 **** 0.06
5789 H 11.392096846055892 17.110007071442173 28.106206832484673 H 0.0 **** 0.06
5790 H 10.124972391919187 18.2234706708719 28.674860650438973 H 0.0 **** 0.06
5791 C 55.68526592620012 9.105261533720068 26.959117067375047 C 0.0 **** -0.24
5792 H 55.3619269907781 8.561821145159513 26.071461250100583 H 0.0 **** 0.06
5793 H 56.42875355087264 8.51579247700488 27.49465484666237 H 0.0 **** 0.06
5794 H 54.82671434029385 9.284247514881258 27.607716851901188 H 0.0 **** 0.06
5795 H 56.120794723099635 10.05904683787469 26.661786219587725 H 0.0 **** 0.06
5796 C 79.55561856048769 93.90413505672265 59.24802145239229 C 0.0 **** -0.24
5797 H 79.29427669999615 94.22531135994063 60.256493377990886 H 0.0 **** 0.06
5798 H 80.64012671107287 93.83795917095813 59.1567457348932 H 0.0 **** 0.06
5799 H 79.17245636578076 94.6264009621905 58.52753893754093 H 0.0 **** 0.06
5800 H 79.113957981277 92.92652131561229 59.053078550572685 H 0.0 **** 0.06
5801 C 41.004179667987415 56.92107077117245 98.88874249219606 C 0.0 **** -0.24
5802 H 40.234633702222666 56.516777901822934 99.54584570661578 H 0.0 **** 0.06
5803 H 41.12495384337403 57.98715739495643 99.08455203315327 H 0.0 **** 0.06
5804 H 40.710367657946676 56.77268526522175 97.8500555404606 H 0.0 **** 0.06
5805 H 41.94778663388426 56.407824954870165 99.07733222734933 H 0.0 **** 0.06
5806 C 41.34547253025889 39.43318689898024 25.418017356374975 C 0.0 **** -0.24
5807 H 41.19731426270357 38.49724206179036 24.877865645990312 H 0.0 **** 0.06
5808 H 40.82883730586829 40.23849358832797 24.895685488950676 H 0.0 **** 0.06
5809 H 42.41146334893031 39.656945631764756 25.46850539436582 H 0.0 **** 0.06
5810 H 40.94591165677102 39.336985548521966 26.42704101197009 H 0.0 **** 0.06
5811 C 8.87377678873088 87.50870202915576 84.73917844355762 C 0.0 **** -0.24
5812 H 9.071736639794537 87.48980703523625 85.81113193889297 H 0.0 **** 0.06
5813 H 8.111439163286022 86.76822034452567 84.49700782155122 H 0.0 **** 0.06
5814 H 9.791023720961277 87.27728545497146 84.19738434692195 H 0.0 **** 0.06
5815 H 8.522664831966154 88.50020275375647 84.45329018625142 H 0.0 **** 0.06
5816 C 61.11162328841314 50.24818795602141 101.92023942170476 C 0.0 **** -0.24
5817 H 61.47470485189052 50.421480263069526 100.90676026794637 H 0.0 **** 0.06
5818 H 60.94987589624293 49.17993146173691 102.0692975160585 H 0.0 **** 0.06
5819 H 60.172393966645245 50.78173067623166 102.06543179437455 H 0.0 **** 0.06
5820 H 61.849406200387705 50.60825515865872 102.63743004297686 H 0.0 **** 0.06
5821 C 107.04407249302724 49.11601808035047 86.41838160998483 C 0.0 **** -0.24
5822 H 106.51664240459988 48.615934528360015 87.23065208805306 H 0.0 **** 0.06
5823 H 106.4391983810529 49.074300861378845 85.51231351173737 H 0.0 **** 0.06
5824 H 107.99649062042357 48.616130097650284 86.24299892863087 H 0.0 **** 0.06
5825 H 107.22392306459216 50.1565795594357 86.68921364350939 H 0.0 **** 0.06
5826 C 98.63043435714627 100.71718405828517 13.86547553771561 C 0.0 **** -0.24
5827 H 98.99270501326566 101.73298136385154 13.709741302488766 H 0.0 **** 0.06
5828 H 99.04859197826846 100.32044128613484 14.792134012143805 H 0.0 **** 0.06
5829 H 98.93903803601387 100.08939061774413 13.029362761497296 H 0.0 **** 0.06
5830 H 97.54278737408714 100.72538214171698 13.931552629488891 H 0.0 **** 0.06
5831 C 77.95589233491086 11.352992741224625 7.2390163184699645 C 0.0 **** -0.24
5832 H 79.04291605544341 11.319594401258314 7.314972848427345 H 0.0 **** 0.06
5833 H 77.56514331293675 12.084557456253748 7.947830668848013 H 0.0 **** 0.06
5834 H 77.54509169722007 10.369908814450866 7.468505328814956 H 0.0 **** 0.06
5835 H 77.67100782647464 11.638852564853892 6.227543013886503 H 0.0 **** 0.06
5836 C 12.350727759202385 72.71846942490095 91.31244936074023 C 0.0 **** -0.24
5837 H 13.125765365626563 72.212235853523 91.88781156281789 H 0.0 **** 0.06
5838 H 11.879658618646488 73.48367220615165 91.93154313915238 H 0.0 **** 0.06
5839 H 11.599933923494888 71.9936579422274 90.9971489632099 H 0.0 **** 0.06
5840 H 12.796687929650005 73.18533008340984 90.43439581713253 H 0.0 **** 0.06
5841 C 87.97048996421526 100.18771202852628 103.22960838744726 C 0.0 **** -0.24
5842 H 88.10311704869534 99.70019322058903 102.2641842252117 H 0.0 **** 0.06
5843 H 88.18236513504499 101.252894731222 103.13143420239925 H 0.0 **** 0.06
5844 H 88.65423357053444 99.74769266697484 103.95592654337219 H 0.0 **** 0.06
5845 H 86.94362050135788 100.05104381351481 103.56936907063519 H 0.0 **** 0.06
5846 C 79.6376027864963 0.24049738336498194 47.956159520232525 C 0.0 **** -0.24
5847 H 79.69994966430946 1.0518813032999788 48.68281316068159 H 0.0 **** 0.06
5848 H 80.37638507476123 0.3994012936461786 47.17090055424762 H 0.0 **** 0.06
5849 H 78.63951388040331 0.22157385045233013 47.518665730626005 H 0.0 **** 0.06
5850 H 79.83344398059282 -0.708580154795186 48.45481212809243 H 0.0 **** 0.06
5851 C 16.149833942357247 105.34112549997073 87.690257149671 C 0.0 **** -0.24
5852 H 15.075590413777604 105.15732208735645 87.704697725037 H 0.0 **** 0.06
5853 H 16.549086139301608 105.0864652471538 86.70748385855484 H 0.0 **** 0.06
5854 H 16.633676062811958 104.72643263972722 88.44903370207626 H 0.0 **** 0.06
5855 H 16.340712333817635 106.39394184672267 87.89846756102256 H 0.0 **** 0.06
5856 C 110.36918242204888 24.71752754018671 14.713136910528505 C 0.0 **** -0.24
5857 H 111.12205650824313 25.175256281469487 14.070399424711582 H 0.0 **** 0.06
5858 H 109.57210008143352 25.435209466586954 14.906309794225933 H 0.0 **** 0.06
5859 H 110.82815213542005 24.41993519123791 15.655498803853192 H 0.0 **** 0.06
5860 H 109.9549620731218 23.838954325815052 14.216855646027312 H 0.0 **** 0.06
5861 C 95.78287275158749 108.551936093432 76.5132399536543 C 0.0 **** -0.24
5862 H 96.56863068540423 107.86965728895628 76.8369380681088 H 0.0 **** 0.06
5863 H 95.29899826554924 108.15201697526653 75.6222166295237 H 0.0 **** 0.06
5864 H 96.21819208305334 109.52521835929393 76.28444275401415 H 0.0 **** 0.06
5865 H 95.04636130584612 108.661473641017 77.30973028488708 H 0.0 **** 0.06
5866 C 81.0805396045582 57.31745268311656 43.013691227317054 C 0.0 **** -0.24
5867 H 80.6417035328059 56.39280637493269 43.38827030133422 H 0.0 **** 0.06
5868 H 80.67090543059902 58.163972968721225 43.56508914010607 H 0.0 **** 0.06
5869 H 80.84934002599832 57.42633602143559 41.95395608252596 H 0.0 **** 0.06
5870 H 82.16236735138929 57.285809868804705 43.14819745137231 H 0.0 **** 0.06
5871 C 6.621168662279089 77.47120141628326 39.321750162134634 C 0.0 **** -0.24
5872 H 5.749158528287097 76.91506062578392 38.978064083396845 H 0.0 **** 0.06
5873 H 6.432187569034497 78.54010268890977 39.22295440794707 H 0.0 **** 0.06
5874 H 7.487379037439524 77.1974859660354 38.718660718970966 H 0.0 **** 0.06
5875 H 6.815702282754259 77.2301720326054 40.36735953507784 H 0.0 **** 0.06
5876 C 5.251086968836686 109.43276066355719 89.4047625516771 C 0.0 **** -0.24
5877 H 4.577611156217426 108.59621372993331 89.2175088020262 H 0.0 **** 0.06
5878 H 6.283770378753021 109.08986362912441 89.33650553232485 H 0.0 **** 0.06
5879 H 5.065430533565621 109.83337324342978 90.401412263492 H 0.0 **** 0.06
5880 H 5.077324101265466 110.21164964153189 88.66222647693684 H 0.0 **** 0.06
5881 C 40.253045063181176 65.14702479205701 3.428566419469007 C 0.0 **** -0.24
5882 H 40.91196743647302 64.30387267567133 3.2207005610786297 H 0.0 **** 0.06
5883 H 40.76416408883068 65.8547700672506 4.0828503621386005 H 0.0 **** 0.06
5884 H 39.34761914629422 64.78814261368396 3.9180711556345784 H 0.0 **** 0.06
5885 H 39.988781998738204 65.64134917684808 2.4935788037351188 H 0.0 **** 0.06
5886 C 50.378817766706504 42.22899288906078 64.58156812612975 C 0.0 **** -0.24
5887 H 49.88254943920566 43.15803870078727 64.30010934351583 H 0.0 **** 0.06
5888 H 50.36273601029535 41.5385653853823 63.73779465276653 H 0.0 **** 0.06
5889 H 49.858264657918596 41.78113575666504 65.42797513892543 H 0.0 **** 0.06
5890 H 51.411244095835855 42.43901348564674 64.85999151109456 H 0.0 **** 0.06
5891 C 33.42736497965382 34.59317085993375 88.05647397750113 C 0.0 **** -0.24
5892 H 34.23295305540205 35.297806960943944 87.8497925495069 H 0.0 **** 0.06
5893 H 32.57617647791713 35.128198487458704 88.47844672980261 H 0.0 **** 0.06
5894 H 33.77420810904721 33.84316581959695 88.76655961451547 H 0.0 **** 0.06
5895 H 33.12616956512642 34.10459772412979 87.12941785964841 H 0.0 **** 0.06
5896 C 83.21545190256026 97.14255835024676 38.845334195201985 C 0.0 **** -0.24
5897 H 83.46390084777576 98.10697584958504 38.401508285196485 H 0.0 **** 0.06
5898 H 82.42509848393914 97.27578504254299 39.58439680504682 H 0.0 **** 0.06
5899 H 84.10012909271668 96.72812052513368 39.329491182921345 H 0.0 **** 0.06
5900 H 82.87452737771505 96.46069430021569 38.06682521859179 H 0.0 **** 0.06
5901 C 95.9155662822765 31.13026174585187 46.01549555110803 C 0.0 **** -0.24
5902 H 96.2153670101689 30.90728095679566 47.03969109293932 H 0.0 **** 0.06
5903 H 94.96266569014924 30.64501825506244 45.80182134916665 H 0.0 **** 0.06
5904 H 96.67501307523636 30.760514903753176 45.32651424889126 H 0.0 **** 0.06
5905 H 95.81041551034579 32.20853991146103 45.89464474964911 H 0.0 **** 0.06
5906 C 0.46086819600517703 94.29423397391324 22.640642020752693 C 0.0 **** -0.24
5907 H -0.34513127408898914 93.65586768953744 23.00297163509032 H 0.0 **** 0.06
5908 H 0.6931841638934442 95.04830992952077 23.39267203123012 H 0.0 **** 0.06
5909 H 0.15023930398787488 94.78388637607239 21.717566390886248 H 0.0 **** 0.06
5910 H 1.3464302424495562 93.68676540664674 22.449395351678618 H 0.0 **** 0.06
5911 C 86.1779128220079 51.82187182475056 54.202056647655 C 0.0 **** -0.24
5912 H 85.9587906634963 51.2592619594368 55.108875228504324 H 0.0 **** 0.06
5913 H 87.23219054168851 52.10040103002294 54.19303326898994 H 0.0 **** 0.06
5914 H 85.56357739193297 52.72090135612933 54.175164764758705 H 0.0 **** 0.06
5915 H 85.95754998518717 51.20486286478442 53.3304135984109 H 0.0 **** 0.06
5916 C 55.22866351132461 81.83948324043894 32.7425046792207 C 0.0 **** -0.24
5917 H 54.83863728721511 81.77410852216542 33.759053337547414 H 0.0 **** 0.06
5918 H 55.09726315899158 82.85394495100581 32.36769045082531 H 0.0 **** 0.06
5919 H 54.6889757878331 81.14194438598429 32.10196654772295 H 0.0 **** 0.06
5920 H 56.289268557194276 81.58549533315968 32.74409925511418 H 0.0 **** 0.06
5921 C 10.384984564366263 85.60388233397256 81.16734985157493 C 0.0 **** -0.24
5922 H 11.25126052901527 86.15042585525543 80.7948964871546 H 0.0 **** 0.06
5923 H 10.520514786067153 85.38646626042208 82.22760797822599 H 0.0 **** 0.06
5924 H 10.279207923057214 84.66926513756059 80.61596212645193 H 0.0 **** 0.06
5925 H 9.488035575215179 86.20859800819909 81.03218005199065 H 0.0 **** 0.06
5926 C 31.084685671461827 8.508876232432328 48.119675082856034 C 0.0 **** -0.24
5927 H 30.16909152850561 8.170083992341858 48.60462825871704 H 0.0 **** 0.06
5928 H 30.85500791493658 9.336537791775584 47.44796539093666 H 0.0 **** 0.06
5929 H 31.518347614754738 7.687149225549717 47.5505649153815 H 0.0 **** 0.06
5930 H 31.79503864721162 8.8403731374612 48.87714445513957 H 0.0 **** 0.06
5931 C 74.54439969815812 42.59890783473415 62.892063589335784 C 0.0 **** -0.24
5932 H 74.74933240036154 43.20029804741077 63.777203541429834 H 0.0 **** 0.06
5933 H 75.0766698400248 41.649956624198225 62.96540217375958 H 0.0 **** 0.06
5934 H 74.87891166057798 43.13508503832857 62.00364748463644 H 0.0 **** 0.06
5935 H 73.47354047336125 42.41020619133633 62.82149053329534 H 0.0 **** 0.06
5936 C 62.841219602882774 86.48987695150475 2.8488921094083253 C 0.0 **** -0.24
5937 H 63.17324886163263 87.37922086136103 3.3841830106118778 H 0.0 **** 0.06
5938 H 61.78737681376779 86.3091400673969 3.0641385452571512 H 0.0 **** 0.06
5939 H 63.430235118317455 85.63130236340416 3.171950632006201 H 0.0 **** 0.06
5940 H 62.97314531415702 86.63950964205361 1.777327808476457 H 0.0 **** 0.06
5941 C 92.6432942762134 77.29352259981306 46.14602560509559 C 0.0 **** -0.24
5942 H 91.71864498146869 77.78059259239998 45.83919699697043 H 0.0 **** 0.06
5943 H 93.0077924460374 76.66248397734401 45.335815942631 H 0.0 **** 0.06
5944 H 92.45568422313619 76.6816638044211 47.02808435794668 H 0.0 **** 0.06
5945 H 93.39222946622436 78.0508267966211 46.381669252733786 H 0.0 **** 0.06
5946 C 63.73540037554314 20.5990721521417 27.065427766875047 C 0.0 **** -0.24
5947 H 64.08124002577861 19.66191962571989 27.500494904045098 H 0.0 **** 0.06
5948 H 63.56753529697934 21.327708416073875 27.858747323822257 H 0.0 **** 0.06
5949 H 62.802640301285585 20.426464168328636 26.526115552655313 H 0.0 **** 0.06
5950 H 64.48891119671785 20.97959062049196 26.375349100468526 H 0.0 **** 0.06
5951 C 33.53813083072649 11.08965992219018 21.475203466318167 C 0.0 **** -0.24
5952 H 33.54598641851359 10.083944152656144 21.896344196671272 H 0.0 **** 0.06
5953 H 34.40511616047675 11.219138541440827 20.82766111692268 H 0.0 **** 0.06
5954 H 33.57326231118256 11.821759227871013 22.28134099574467 H 0.0 **** 0.06
5955 H 32.62617200397689 11.231786472548805 20.894462913324148 H 0.0 **** 0.06
5956 C 12.55589200328646 83.71036579964436 84.38404177391638 C 0.0 **** -0.24
5957 H 11.81309341473468 83.69368283626946 83.58631165524486 H 0.0 **** 0.06
5958 H 13.552546204899116 83.79437797450765 83.95083080501888 H 0.0 **** 0.06
5959 H 12.487868084684436 82.78957171101317 84.96367907714765 H 0.0 **** 0.06
5960 H 12.368747265525855 84.56376134861634 85.03586635028512 H 0.0 **** 0.06
5961 C 107.24876499969326 53.028547212498154 74.86042584449609 C 0.0 **** -0.24
5962 H 107.09354038380795 54.0393257480421 74.48206687873198 H 0.0 **** 0.06
5963 H 107.69264163098536 52.41239798013305 74.07851085756147 H 0.0 **** 0.06
5964 H 106.29260405301332 52.60149888073806 75.160682868415 H 0.0 **** 0.06
5965 H 107.91810725950381 53.06214588831469 75.7199451564635 H 0.0 **** 0.06
5966 C 56.28969493195898 50.82440651865886 14.4174367895328 C 0.0 **** -0.24
5967 H 55.6649470391267 50.410450989144124 13.625722635861806 H 0.0 **** 0.06
5968 H 55.8117836376033 51.71370899377473 14.828924722879123 H 0.0 **** 0.06
5969 H 57.2649393470024 51.090198114135774 14.00957707338543 H 0.0 **** 0.06
5970 H 56.41539639189938 50.08161687292238 15.2061047526703 H 0.0 **** 0.06
5971 C 41.99362846286593 44.72312499984176 39.04809472770191 C 0.0 **** -0.24
5972 H 43.06637742207704 44.53491796342208 39.05640546516452 H 0.0 **** 0.06
5973 H 41.505177802241434 44.074675974259264 39.776527492472184 H 0.0 **** 0.06
5974 H 41.596615275287775 44.517965702034935 38.054395312891046 H 0.0 **** 0.06
5975 H 41.80523379533898 45.76534035216402 39.30583102721525 H 0.0 **** 0.06
5976 C 20.760156154943047 61.994895416391834 50.477030665393244 C 0.0 **** -0.24
5977 H 20.455664514753636 61.12211881691149 51.0542855606038 H 0.0 **** 0.06
5978 H 21.145078311552993 61.67321798300524 49.508712526156074 H 0.0 **** 0.06
5979 H 21.537286650060338 62.53502341485672 51.01655198286906 H 0.0 **** 0.06
5980 H 19.90087528924863 62.648359431324415 50.327432720139285 H 0.0 **** 0.06
5981 C 24.995499333962698 18.03941365485826 13.744843241267134 C 0.0 **** -0.24
5982 H 25.67478713119783 17.997850248553807 12.89380862226578 H 0.0 **** 0.06
5983 H 24.5679801959746 17.05086088286571 13.91691090010093 H 0.0 **** 0.06
5984 H 24.196545346136475 18.75042150591671 13.53803011951986 H 0.0 **** 0.06
5985 H 25.54359020435561 18.357626849100246 14.632461532788938 H 0.0 **** 0.06
5986 C 107.64020018881146 80.66825587828055 66.30311623772658 C 0.0 **** -0.24
5987 H 106.66497083905114 81.0415599758957 65.99251506638032 H 0.0 **** 0.06
5988 H 108.40419790948738 81.03608533674887 65.6165432330128 H 0.0 **** 0.06
5989 H 107.63408309822915 79.57799218657365 66.29030618894026 H 0.0 **** 0.06
5990 H 107.85956009574332 81.01890276986401 67.31147101860154 H 0.0 **** 0.06
5991 C 73.58787151042631 19.333439952033633 96.1426446282749 C 0.0 **** -0.24
5992 H 74.1517020190025 18.42212054369829 96.34498482206024 H 0.0 **** 0.06
5993 H 73.21628323270448 19.74540319519155 97.08074047175967 H 0.0 **** 0.06
5994 H 72.74717026857502 19.102234596054398 95.48880835346915 H 0.0 **** 0.06
5995 H 74.23734346757925 20.061599568204144 95.65714270291679 H 0.0 **** 0.06
5996 C 87.43947843672501 26.23880614119389 21.76785060672563 C 0.0 **** -0.24
5997 H 88.34243380827886 26.0167714035951 22.337960815331385 H 0.0 **** 0.06
5998 H 86.59519809856783 25.70535337984542 22.204413596575193 H 0.0 **** 0.06
5999 H 87.57523741002444 25.92122966090824 20.734000002558645 H 0.0 **** 0.06
6000 H 87.24728345581795 27.311107924696884 21.796873637452507 H 0.0 **** 0.06
6001 C 22.005820847448263 46.09923081338934 93.58616703035469 C 0.0 **** -0.24
6002 H 21.149841212699698 46.64213891955609 93.98803528095405 H 0.0 **** 0.06
6003 H 22.118181581289946 45.1533692004262 94.1174281192506 H 0.0 **** 0.06
6004 H 22.907748255320826 46.697941040827686 93.71376957835389 H 0.0 **** 0.06
6005 H 21.84614323269176 45.90379954196237 92.52557564237176 H 0.0 **** 0.06
6006 C 24.033297838513192 101.08891881219012 7.1466160100562774 C 0.0 **** -0.24
6007 H 23.16322337176777 101.73548440851081 7.031869551870216 H 0.0 **** 0.06
6008 H 23.91155024481162 100.47215897899704 8.037381553819955 H 0.0 **** 0.06
6009 H 24.929699023183986 101.70076187790806 7.247563359361834 H 0.0 **** 0.06
6010 H 24.127579598569355 100.44682727534436 6.27087700955974 H 0.0 **** 0.06
6011 C 13.476061183872673 11.414185526734343 90.52443191364614 C 0.0 **** -0.24
6012 H 14.529313216038076 11.236501619704882 90.74234472270399 H 0.0 **** 0.06
6013 H 13.377651077270059 12.313194847157035 89.91529224930045 H 0.0 **** 0.06
6014 H 12.92969169349135 11.546942172198357 91.45788807635876 H 0.0 **** 0.06
6015 H 13.068097435100782 10.561660238601661 89.98276640868525 H 0.0 **** 0.06
6016 C 30.349742316184518 69.57974015364584 83.29217499949442 C 0.0 **** -0.24
6017 H 30.80056773777295 70.5051341007352 83.65119017130411 H 0.0 **** 0.06
6018 H 29.854242770234464 69.07202736970135 84.1190917189279 H 0.0 **** 0.06
6019 H 31.126160980400073 68.93393767755921 82.88186095209892 H 0.0 **** 0.06
6020 H 29.619537110463625 69.80956450279021 82.51570248701927 H 0.0 **** 0.06
6021 C 68.93118827523233 21.504024367275093 47.281778262803186 C 0.0 **** -0.24
6022 H 68.8974972679747 21.092141311781756 46.27257277281035 H 0.0 **** 0.06
6023 H 68.91651505544212 22.593317015681684 47.22977162382821 H 0.0 **** 0.06
6024 H 69.84442146282151 21.176057853696204 47.77711696867678 H 0.0 **** 0.06
6025 H 68.06607360314547 21.155509655300655 47.84539822184803 H 0.0 **** 0.06
6026 C 0.3136378753933968 108.22015434738472 33.128169687712614 C 0.0 **** -0.24
6027 H -0.032680294473706795 107.94010952852585 34.122961629262875 H 0.0 **** 0.06
6028 H 1.3971478063826908 108.11394359077201 33.076848314775134 H 0.0 **** 0.06
6029 H 0.03875831863354051 109.25528495866024 32.9263201911254 H 0.0 **** 0.06
6030 H -0.1512162482159738 107.56972505612225 32.38689996597492 H 0.0 **** 0.06
6031 C 93.05540752476674 27.192142657536046 87.79178434366247 C 0.0 **** -0.24
6032 H 92.55942884741086 26.93462608904928 88.72788678802294 H 0.0 **** 0.06
6033 H 93.9410059310689 27.79159163025397 88.00306091732404 H 0.0 **** 0.06
6034 H 92.36979376576909 27.763090862361864 87.1643631123481 H 0.0 **** 0.06
6035 H 93.34875571626921 26.280330017884438 87.2727536439163 H 0.0 **** 0.06
6036 C 109.01038299035567 111.16605767027102 89.62471614316078 C 0.0 **** -0.24
6037 H 108.9770703203871 112.08464172643107 89.03857195576663 H 0.0 **** 0.06
6038 H 109.0257832437016 111.41199082607761 90.68580615884505 H 0.0 **** 0.06
6039 H 109.90917923089557 110.60393599206185 89.36833750047111 H 0.0 **** 0.06
6040 H 108.12986531379453 110.56221876814601 89.40420397318749 H 0.0 **** 0.06
6041 C 81.73164974814091 35.627754118429436 74.85530244686996 C 0.0 **** -0.24
6042 H 82.70764012969602 35.22021142115932 74.59065901180159 H 0.0 **** 0.06
6043 H 81.83174223154398 36.27060922789178 75.73078933234387 H 0.0 **** 0.06
6044 H 81.04542330755598 34.81141718398004 75.07932172522774 H 0.0 **** 0.06
6045 H 81.34319559580445 36.20942413558009 74.01916802774645 H 0.0 **** 0.06
6046 C 88.91775819110043 40.523047159169835 89.06193928581035 C 0.0 **** -0.24
6047 H 89.59979730868184 39.737335685678545 89.38766392621343 H 0.0 **** 0.06
6048 H 87.8986732490527 40.257679749573924 89.34330632295305 H 0.0 **** 0.06
6049 H 88.97990495894237 40.632008548366656 87.97928626126316 H 0.0 **** 0.06
6050 H 89.19270804545721 41.46388703167921 89.53866908194166 H 0.0 **** 0.06
6051 C 11.609946932375792 10.315049502145772 80.43484035826651 C 0.0 **** -0.24
6052 H 12.288951080818634 10.878863667586334 79.79423563513726 H 0.0 **** 0.06
6053 H 11.803916357705617 10.56559941957649 81.478004783632 H 0.0 **** 0.06
6054 H 11.768194678583555 9.248232389018565 80.28154259317083 H 0.0 **** 0.06
6055 H 10.580483082111982 10.569401137654037 80.18443515734191 H 0.0 **** 0.06
6056 C 15.837332592534409 41.7154686345257 81.35804802525593 C 0.0 **** -0.24
6057 H 15.081585258659231 42.48417480818837 81.20156132412208 H 0.0 **** 0.06
6058 H 16.560310936959837 42.06075963229419 82.09722178110545 H 0.0 **** 0.06
6059 H 16.34785790242063 41.5112724883716 80.41692942071421 H 0.0 **** 0.06
6060 H 15.358704470443456 40.803523320814584 81.71567812057418 H 0.0 **** 0.06
6061 C 74.70250394284795 8.787664520744187 64.4903789248043 C 0.0 **** -0.24
6062 H 75.09031565796394 7.922882236912827 65.0294402444622 H 0.0 **** 0.06
6063 H 74.89487801521929 8.667001497824316 63.424586259390594 H 0.0 **** 0.06
6064 H 75.19693230630702 9.690171840618135 64.85025048864225 H 0.0 **** 0.06
6065 H 73.6287780231059 8.870112576399748 64.66006209533151 H 0.0 **** 0.06
6066 C 10.69741291454524 68.51637386139674 104.24951317505094 C 0.0 **** -0.24
6067 H 10.13718624912952 67.82734297553128 104.8826600697148 H 0.0 **** 0.06
6068 H 11.154536102232896 69.28795172738916 104.8697344475076 H 0.0 **** 0.06
6069 H 10.022433616017707 68.9801764226741 103.53047527686806 H 0.0 **** 0.06
6070 H 11.474995010282626 67.9687749925659 103.71804456074591 H 0.0 **** 0.06
6071 C 38.96430302473851 84.2021326251 81.77687129938491 C 0.0 **** -0.24
6072 H 39.634248234327515 84.98810431992922 81.42742840846759 H 0.0 **** 0.06
6073 H 37.93207929603119 84.54006933854751 81.68979493035457 H 0.0 **** 0.06
6074 H 39.18665974382958 83.97400309760235 82.81922430639281 H 0.0 **** 0.06
6075 H 39.10749168319728 83.30737690401762 81.17050702343067 H 0.0 **** 0.06
6076 C 27.20784947656827 28.66830091874928 53.702717137308866 C 0.0 **** -0.24
6077 H 26.95048625160632 28.319712210762134 52.702775915967266 H 0.0 **** 0.06
6078 H 26.742679836648477 28.018348835156615 54.444312662857214 H 0.0 **** 0.06
6079 H 26.84765277884577 29.688221270638024 53.83549204619163 H 0.0 **** 0.06
6080 H 28.290801711927628 28.646103201351508 53.82775774260381 H 0.0 **** 0.06
6081 C 6.744706332474967 24.534316857605212 11.05207759766705 C 0.0 **** -0.24
6082 H 6.878877035981388 24.63998780432441 12.12887576575747 H 0.0 **** 0.06
6083 H 6.830425323783775 25.512191059912457 10.577935524691469 H 0.0 **** 0.06
6084 H 5.758651480640564 24.115886415658757 10.849306280842484 H 0.0 **** 0.06
6085 H 7.511024237611714 23.869226237955097 10.654423597587737 H 0.0 **** 0.06
6086 C 53.44681802823192 4.70813613188551 91.72413152144551 C 0.0 **** -0.24
6087 H 54.1070609632215 5.328803249497071 91.11825942866287 H 0.0 **** 0.06
6088 H 53.26201828737703 5.198152419563598 92.679311295139 H 0.0 **** 0.06
6089 H 53.91566588915708 3.739743261176784 91.89581513416897 H 0.0 **** 0.06
6090 H 52.50098933785489 4.566153229035422 91.1997429002613 H 0.0 **** 0.06
6091 C 79.1497960643984 21.344978439797757 49.53892222750252 C 0.0 **** -0.24
6092 H 79.74409860445166 21.90715929476407 50.2607266943727 H 0.0 **** 0.06
6093 H 79.67039383398003 21.3212433863263 48.58067847121492 H 0.0 **** 0.06
6094 H 78.18079877136819 21.826896527044553 49.414324816324566 H 0.0 **** 0.06
6095 H 79.00676515207113 20.32721852649371 49.90136295560516 H 0.0 **** 0.06
6096 C 104.81259632339174 81.50842165049227 38.08982282179949 C 0.0 **** -0.24
6097 H 103.96595409434093 81.02055727210046 38.573216756028174 H 0.0 **** 0.06
6098 H 104.7987933494336 82.5728371958576 38.32403941001087 H 0.0 **** 0.06
6099 H 104.7412129909913 81.3721042438246 37.010729973544215 H 0.0 **** 0.06
6100 H 105.74084401229393 81.06713873822866 38.45158373798074 H 0.0 **** 0.06
6101 C 66.11289569973849 58.24669038008045 87.98358834562998 C 0.0 **** -0.24
6102 H 66.05544042280474 58.241272668437546 86.8953903418705 H 0.0 **** 0.06
6103 H 67.12512154294245 57.98745643275652 88.29501896670192 H 0.0 **** 0.06
6104 H 65.41044965013413 57.51775022837256 88.38821312883076 H 0.0 **** 0.06
6105 H 65.86124732799766 59.23904598989816 88.35560949995133 H 0.0 **** 0.06
6106 C 51.32350628092167 52.850353815521856 47.756734287407376 C 0.0 **** -0.24
6107 H 51.40400891713253 52.27287289385117 46.836190720507226 H 0.0 **** 0.06
6108 H 51.762084882850566 53.83691291369652 47.60636023874275 H 0.0 **** 0.06
6109 H 51.85450214627812 52.33373055888686 48.55690942450393 H 0.0 **** 0.06
6110 H 50.27298773232885 52.95713899288584 48.027953977290785 H 0.0 **** 0.06
6111 C 100.4276750834849 66.31987390675002 77.72769848036205 C 0.0 **** -0.24
6112 H 100.82016614601164 65.3786580505392 77.34232997229867 H 0.0 **** 0.06
6113 H 101.25589979235997 66.9846040754596 77.97372701182496 H 0.0 **** 0.06
6114 H 99.83723319534468 66.12694652252719 78.62447543222777 H 0.0 **** 0.06
6115 H 99.79764975590575 66.78801899696398 76.97234255850907 H 0.0 **** 0.06
6116 C 38.48627285444408 43.30050213466418 66.32638024781326 C 0.0 **** -0.24
6117 H 37.6380495808489 43.21760302364573 67.00716913074672 H 0.0 **** 0.06
6118 H 38.343150988357706 42.624347819522164 65.48409953053056 H 0.0 **** 0.06
6119 H 39.40193361725605 43.03523228970408 66.85466109554082 H 0.0 **** 0.06
6120 H 38.560428160410396 44.32475609080499 65.96300560578814 H 0.0 **** 0.06
6121 C 34.582541215487396 75.5775289992545 70.15898783283984 C 0.0 **** -0.24
6122 H 34.78271678214682 74.92569334761785 69.30917352304971 H 0.0 **** 0.06
6123 H 35.468559255416636 75.62874280505645 70.79295758911343 H 0.0 **** 0.06
6124 H 33.74739682089327 75.17760886153059 70.7344442941328 H 0.0 **** 0.06
6125 H 34.332614980129705 76.57604353292038 69.80152742166882 H 0.0 **** 0.06
6126 C 105.19379451883381 105.00308639319584 13.293012945663222 C 0.0 **** -0.24
6127 H 106.10243934613882 105.55516924621574 13.531611874456758 H 0.0 **** 0.06
6128 H 105.14739196000468 104.09916882946547 13.901194075794919 H 0.0 **** 0.06
6129 H 105.20112810316499 104.7298427067577 12.237358857497469 H 0.0 **** 0.06
6130 H 104.32416250460628 105.6266099628746 13.501125707798977 H 0.0 **** 0.06
6131 C 26.744558964205524 62.06106605815603 55.23090165790312 C 0.0 **** -0.24
6132 H 26.491716128244562 62.93768381760992 55.826934515868786 H 0.0 **** 0.06
6133 H 27.657610079205938 62.256291150434265 54.66754717492765 H 0.0 **** 0.06
6134 H 25.93019310339551 61.84516034374656 54.539348800853034 H 0.0 **** 0.06
6135 H 26.898853424367793 61.20561579899828 55.88891342872365 H 0.0 **** 0.06
6136 C 34.55800090585382 81.50335305756622 76.45465490298986 C 0.0 **** -0.24
6137 H 35.48731206123955 81.68634585896433 75.91502742758692 H 0.0 **** 0.06
6138 H 34.72313571279679 80.73816347723795 77.21368575699725 H 0.0 **** 0.06
6139 H 33.79306048529796 81.16358600658955 75.75641003559414 H 0.0 **** 0.06
6140 H 34.229122977796266 82.42600616556268 76.9338584048518 H 0.0 **** 0.06
6141 C 87.19133962940472 10.434483008573562 30.895673839058475 C 0.0 **** -0.24
6142 H 87.44833572324094 9.458042658298842 31.30720595411603 H 0.0 **** 0.06
6143 H 87.02450023331298 11.139200003505078 31.709920685039407 H 0.0 **** 0.06
6144 H 86.28448240272368 10.348627674039491 30.29682557996904 H 0.0 **** 0.06
6145 H 88.00849168554169 10.789915855263185 30.26830522864924 H 0.0 **** 0.06
6146 C 80.860968867092 56.67712315303251 28.831573692277004 C 0.0 **** -0.24
6147 H 81.76582717039386 56.08894335190752 28.679638358948978 H 0.0 **** 0.06
6148 H 80.215612267029 56.17228722208989 29.550968559519163 H 0.0 **** 0.06
6149 H 80.33386438388618 56.783872037526095 27.883262586519095 H 0.0 **** 0.06
6150 H 81.12755663190234 57.663014068045015 29.211515026576024 H 0.0 **** 0.06
6151 C 60.46838447645339 83.25713157007627 63.126146605078816 C 0.0 **** -0.24
6152 H 59.88793911335417 82.54328984490758 62.542502444432415 H 0.0 **** 0.06
6153 H 59.84424873453262 83.66823632898348 63.919649502402194 H 0.0 **** 0.06
6154 H 60.81142833605703 84.063065682049 62.47794488805732 H 0.0 **** 0.06
6155 H 61.328615845554744 82.75237550323394 63.56541949701858 H 0.0 **** 0.06
6156 C 100.29005434785088 109.2909564810536 99.07240337628514 C 0.0 **** -0.24
6157 H 100.79924227240258 108.3274299558361 99.07837489838212 H 0.0 **** 0.06
6158 H 100.99607557647406 110.073434099432 98.79207096569652 H 0.0 **** 0.06
6159 H 99.89237156892219 109.4977060237974 100.06603430833053 H 0.0 **** 0.06
6160 H 99.47229890874769 109.26430436259503 98.35211239018261 H 0.0 **** 0.06
6161 C 91.45699029532955 15.234931380980896 10.644434083978808 C 0.0 **** -0.24
6162 H 90.99181363723517 16.200780128158584 10.842848532736184 H 0.0 **** 0.06
6163 H 91.92594214045636 14.864271158057207 11.555404721836112 H 0.0 **** 0.06
6164 H 92.21203936605696 15.348807243879577 9.86605780887345 H 0.0 **** 0.06
6165 H 90.69722647869162 14.528084193192981 10.311941456483567 H 0.0 **** 0.06
6166 C 79.68848219792008 10.730384892897632 84.18641745472232 C 0.0 **** -0.24
6167 H 79.353233397601 9.832252593700176 84.70480243241201 H 0.0 **** 0.06
6168 H 79.81275265295866 11.540369202546518 84.90649645819676 H 0.0 **** 0.06
6169 H 78.94827984925004 11.017017541488833 83.4404171123573 H 0.0 **** 0.06
6170 H 80.64121183390594 10.532244791756614 83.69552936092174 H 0.0 **** 0.06
6171 C 4.419320866469187 34.05390908118147 43.54720394519529 C 0.0 **** -0.24
6172 H 5.0277787354401 33.21193503988669 43.21820533688131 H 0.0 **** 0.06
6173 H 4.592965037677924 34.23542968400388 44.60737860242318 H 0.0 **** 0.06
6174 H 3.3653473711897544 33.82497590355155 43.38401092074693 H 0.0 **** 0.06
6175 H 4.6897590624039776 34.94243869542501 42.97618579360477 H 0.0 **** 0.06
6176 C 101.46203247190113 17.410134336160127 52.414359648066636 C 0.0 **** -0.24
6177 H 100.70133026987605 16.730808127261625 52.02866482390956 H 0.0 **** 0.06
6178 H 102.41696321372268 16.888468242852525 52.47842334150178 H 0.0 **** 0.06
6179 H 101.16924104911149 17.756652806589017 53.40521659715552 H 0.0 **** 0.06
6180 H 101.55782178597875 18.265159100194424 51.74413168218909 H 0.0 **** 0.06
6181 C 89.3484358438055 101.39276211109544 41.7913271576657 C 0.0 **** -0.24
6182 H 88.39731032938195 101.18680869459891 42.28237587261238 H 0.0 **** 0.06
6183 H 89.8095475476197 100.45268564503829 41.48501074755312 H 0.0 **** 0.06
6184 H 90.00919785320139 101.91305228688282 42.48360817156426 H 0.0 **** 0.06
6185 H 89.17692452425479 102.01640371074615 40.91418783557005 H 0.0 **** 0.06
6186 C 86.96592636413442 12.45028814808984 89.93823224044385 C 0.0 **** -0.24
6187 H 86.7834014642932 12.010315477907625 90.9189391960343 H 0.0 **** 0.06
6188 H 87.6524302457197 11.815513390371677 89.3772145345782 H 0.0 **** 0.06
6189 H 87.40364197007588 13.441095242264694 90.06071795858773 H 0.0 **** 0.06
6190 H 86.02312718170916 12.533471398383327 89.39715584679155 H 0.0 **** 0.06
6191 C 95.66331934647292 45.10629515108084 10.9164538822032 C 0.0 **** -0.24
6192 H 95.39223789399833 45.76715755942604 11.74019665230125 H 0.0 **** 0.06
6193 H 95.71239888290063 44.07905083430046 11.277863222395922 H 0.0 **** 0.06
6194 H 96.6355992718943 45.39968109747494 10.52072946161637 H 0.0 **** 0.06
6195 H 94.91266280667699 45.180522257157236 10.129735714522852 H 0.0 **** 0.06
6196 C 66.16043756433604 1.4095858311533114 25.65256447520512 C 0.0 **** -0.24
6197 H 65.82083985423259 1.9359817531712338 26.543685694966577 H 0.0 **** 0.06
6198 H 67.18163358555094 1.0586119104658884 25.805186399805756 H 0.0 **** 0.06
6199 H 66.13319749949937 2.08596517709927 24.797946211088718 H 0.0 **** 0.06
6200 H 65.50718838012102 0.5585327768450563 25.462339499894803 H 0.0 **** 0.06
6201 C 77.13957201906825 13.201955820058501 92.02003833069088 C 0.0 **** -0.24
6202 H 76.17544318026782 13.023352362249433 91.54558634302353 H 0.0 **** 0.06
6203 H 76.9845169035178 13.662537947947296 92.9957787739103 H 0.0 **** 0.06
6204 H 77.73345638750627 13.868042156038857 91.39390754798069 H 0.0 **** 0.06
6205 H 77.66462785499434 12.255015665485391 92.14405882543102 H 0.0 **** 0.06
6206 C 6.882249463370783 62.35156289210141 97.4943963640076 C 0.0 **** -0.24
6207 H 6.7864736162088235 62.68067891332032 96.45973747524334 H 0.0 **** 0.06
6208 H 7.82986865841697 61.82737400187358 97.62238197605359 H 0.0 **** 0.06
6209 H 6.058533006749599 61.6805197484847 97.73938968928704 H 0.0 **** 0.06
6210 H 6.853433309075655 63.21856842555286 98.15521970432118 H 0.0 **** 0.06
6211 C 33.76289493043909 48.27983744628688 10.271703444188972 C 0.0 **** -0.24
6212 H 34.40829525155439 49.15701900564457 10.32766222248469 H 0.0 **** 0.06
6213 H 34.26591891042571 47.49458623441248 9.707191431729825 H 0.0 **** 0.06
6214 H 32.83116523939114 48.546989079087155 9.771813206135647 H 0.0 **** 0.06
6215 H 33.54642387894742 47.92321634972498 11.277934520229877 H 0.0 **** 0.06
6216 C 91.36299678142933 75.95276642247734 29.473765091842317 C 0.0 **** -0.24
6217 H 90.95385733443666 76.95290851178547 29.334373386643115 H 0.0 **** 0.06
6218 H 91.94909174582756 75.67507017590313 28.59727212544051 H 0.0 **** 0.06
6219 H 90.54831492806366 75.24162818332894 29.60676214503345 H 0.0 **** 0.06
6220 H 92.00242431588384 75.94250002524706 30.356504251832973 H 0.0 **** 0.06
6221 C 55.086977748236336 12.394058526752914 24.725249713389246 C 0.0 **** -0.24
6222 H 54.02532016852598 12.325578634630403 24.49024754994977 H 0.0 **** 0.06
6223 H 55.27590697683519 11.927230265692671 25.691537179617484 H 0.0 **** 0.06
6224 H 55.38270001077393 13.442733869426775 24.76423422589008 H 0.0 **** 0.06
6225 H 55.66401823550217 11.882873962492795 23.954494874955373 H 0.0 **** 0.06
6226 C 55.0712529896335 16.952776394433346 47.597226423873124 C 0.0 **** -0.24
6227 H 56.12698511343918 16.864170042299577 47.8522145594267 H 0.0 **** 0.06
6228 H 54.92055167991651 16.64667371036576 46.56218264201203 H 0.0 **** 0.06
6229 H 54.75343954762949 17.988025039236675 47.72014198467909 H 0.0 **** 0.06
6230 H 54.48406215551448 16.311569479194983 48.25561314927302 H 0.0 **** 0.06
6231 C 62.93175335568941 14.9407888936759 33.106669370756414 C 0.0 **** -0.24
6232 H 61.93018097553741 15.369651407489812 33.07895500114098 H 0.0 **** 0.06
6233 H 63.46903717708855 15.328912035963409 33.971465219130316 H 0.0 **** 0.06
6234 H 63.467227308587894 15.208968555569292 32.19525575779191 H 0.0 **** 0.06
6235 H 62.859748500720116 13.855280330417628 33.179901150431384 H 0.0 **** 0.06
6236 C 3.2959631773055555 10.88677047665331 21.135768711538617 C 0.0 **** -0.24
6237 H 2.3468264656052025 10.358032764825019 21.220132758788054 H 0.0 **** 0.06
6238 H 4.116008018845356 10.168887062749967 21.17674835787321 H 0.0 **** 0.06
6239 H 3.3911913669141995 11.595879237147866 21.95857962167986 H 0.0 **** 0.06
6240 H 3.329826857857592 11.424282841890168 20.187614107813374 H 0.0 **** 0.06
6241 C 94.40858319480262 38.85313169715806 5.168102055409207 C 0.0 **** -0.24
6242 H 94.4991682839902 39.21308346062227 4.143795755853958 H 0.0 **** 0.06
6243 H 94.13171786591647 37.79912541604216 5.159400699327392 H 0.0 **** 0.06
6244 H 93.64081124996756 39.42742285404421 5.687961054506204 H 0.0 **** 0.06
6245 H 95.36290559438166 38.97511164168145 5.681369134459729 H 0.0 **** 0.06
6246 C 37.82037341303291 23.614484360374064 19.28438268850681 C 0.0 **** -0.24
6247 H 36.883311111215136 23.7030751965585 18.734176065807446 H 0.0 **** 0.06
6248 H 38.42369527730247 22.8178700491616 18.849294484681565 H 0.0 **** 0.06
6249 H 37.60866172825749 23.382186941499555 20.328250726532048 H 0.0 **** 0.06
6250 H 38.36531545295438 24.556981260018546 19.22573807271135 H 0.0 **** 0.06
6251 C 52.48873002009459 30.93642596366857 9.817598647510657 C 0.0 **** -0.24
6252 H 53.13298926886582 31.777838011015888 10.074414198971287 H 0.0 **** 0.06
6253 H 52.41883525760118 30.259998319473766 10.669113603843208 H 0.0 **** 0.06
6254 H 52.90983226797611 30.40542337643899 8.963797412889921 H 0.0 **** 0.06
6255 H 51.49533797721326 31.304619016159307 9.562086434502705 H 0.0 **** 0.06
6256 C 24.294904327170315 21.154804437251187 98.4717364021019 C 0.0 **** -0.24
6257 H 23.23733532682799 20.9529030046925 98.63791082429225 H 0.0 **** 0.06
6258 H 24.408428740361515 21.82228215737402 97.61759233738019 H 0.0 **** 0.06
6259 H 24.817329648804503 20.219437131199214 98.27437353458697 H 0.0 **** 0.06
6260 H 24.71771343294617 21.626938306719694 99.35953793358374 H 0.0 **** 0.06
6261 C 38.29046996720808 10.469196849271967 48.804385221973824 C 0.0 **** -0.24
6262 H 38.49187974739888 9.620681123853615 48.15080008438579 H 0.0 **** 0.06
6263 H 37.58693684302466 10.170511627178897 49.581655241556575 H 0.0 **** 0.06
6264 H 37.861790091546055 11.28380411220823 48.21899554787011 H 0.0 **** 0.06
6265 H 39.22091479720498 10.802475250275421 49.263765565630315 H 0.0 **** 0.06
6266 C 30.787529803585393 112.48386857633889 91.07838919848118 C 0.0 **** -0.24
6267 H 30.457784999029023 112.45260870402701 92.11714788530719 H 0.0 **** 0.06
6268 H 30.20982263716487 111.76808505067045 90.49272221086417 H 0.0 **** 0.06
6269 H 31.84585829206732 112.22796393019378 91.02636977178494 H 0.0 **** 0.06
6270 H 30.635846717943878 113.48704564392685 90.67938991408056 H 0.0 **** 0.06
6271 C 26.188026383987904 111.79403967054472 81.85211165079409 C 0.0 **** -0.24
6272 H 26.53073205448098 110.99186633082331 82.50537891815765 H 0.0 **** 0.06
6273 H 25.101764244996986 111.87031569303761 81.90890051304825 H 0.0 **** 0.06
6274 H 26.484725264004936 111.57933710907412 80.8261341178536 H 0.0 **** 0.06
6275 H 26.63493083390364 112.73625081514012 82.16958286372886 H 0.0 **** 0.06
6276 C 109.5617566878393 63.25807204044554 31.023505280443203 C 0.0 **** -0.24
6277 H 108.76925505460838 62.78611389785647 31.604350412400947 H 0.0 **** 0.06
6278 H 109.24120933614165 64.25247597898579 30.713791608537065 H 0.0 **** 0.06
6279 H 109.77363324479882 62.65373454627928 30.140939724526845 H 0.0 **** 0.06
6280 H 110.4605633369988 63.33875034409442 31.63322726314385 H 0.0 **** 0.06
6281 C 64.15075127954617 105.0302524359629 76.83002547572531 C 0.0 **** -0.24
6282 H 64.4746861691541 105.20366345593263 75.80382120998175 H 0.0 **** 0.06
6283 H 65.02404461014657 104.96313253054876 77.48012636153774 H 0.0 **** 0.06
6284 H 63.58742614135315 104.098672389272 76.88065920410219 H 0.0 **** 0.06
6285 H 63.518676799839454 105.85682802999656 77.15552672432682 H 0.0 **** 0.06
6286 C 48.633770767458884 68.69056066558369 85.0978572448233 C 0.0 **** -0.24
6287 H 49.4834691555439 69.35918965766803 85.23873078748858 H 0.0 **** 0.06
6288 H 48.5977647455025 67.97092334460791 85.91600338520041 H 0.0 **** 0.06
6289 H 48.74204722844445 68.16136096385009 84.151224654376 H 0.0 **** 0.06
6290 H 47.71220971170618 69.27318393135977 85.08549664797064 H 0.0 **** 0.06
6291 C 106.19293556028961 111.68023226600971 32.18697375196271 C 0.0 **** -0.24
6292 H 107.04123513817484 111.87315317128376 32.84359977467156 H 0.0 **** 0.06
6293 H 106.05051687096287 110.60354967106139 32.085445456785976 H 0.0 **** 0.06
6294 H 106.3873335904729 112.11514844151728 31.207019330736216 H 0.0 **** 0.06
6295 H 105.2945550306031 112.12757395093374 32.61146308079137 H 0.0 **** 0.06
6296 C 52.69194590561659 11.242432085058653 67.88483482668903 C 0.0 **** -0.24
6297 H 53.247562167511575 10.67027318556572 67.14206559285017 H 0.0 **** 0.06
6298 H 53.00752643882231 12.284924197427216 67.84975656338364 H 0.0 **** 0.06
6299 H 52.8884384182677 10.836136675033913 68.8770143074949 H 0.0 **** 0.06
6300 H 51.6246510959744 11.177041367631375 67.6706216152397 H 0.0 **** 0.06
6301 C 112.5577521317211 107.07325817190411 51.751838659590554 C 0.0 **** -0.24
6302 H 113.62729123656865 107.27611976719089 51.7877492014479 H 0.0 **** 0.06
6303 H 112.17479367568409 107.31514691772367 50.7603927220863 H 0.0 **** 0.06
6304 H 112.0464592710725 107.68220333224298 52.49851722916649 H 0.0 **** 0.06
6305 H 112.38112203661046 106.01779094855101 51.96172483199741 H 0.0 **** 0.06
6306 C 28.439656288555852 23.9405361120547 7.520905412458376 C 0.0 **** -0.24
6307 H 28.930487764579055 24.369585679265214 8.39533117075267 H 0.0 **** 0.06
6308 H 28.878893932962768 24.36094964533237 6.616347989698966 H 0.0 **** 0.06
6309 H 27.37590450710573 24.172933470303036 7.551579752405075 H 0.0 **** 0.06
6310 H 28.575493670815092 22.858623795357886 7.522449600088123 H 0.0 **** 0.06
6311 C 30.24094842217025 45.711931408815985 15.511929541788803 C 0.0 **** -0.24
6312 H 30.521345677352826 46.32414828260019 14.654754371290863 H 0.0 **** 0.06
6313 H 29.350440876352508 45.133326451096835 15.267507834612786 H 0.0 **** 0.06
6314 H 30.03342263534489 46.35678304548182 16.36572213403528 H 0.0 **** 0.06
6315 H 31.05929793893722 45.03556123231475 15.75747344062215 H 0.0 **** 0.06
6316 C 8.757267506330095 49.012345933792915 3.578450446545105 C 0.0 **** -0.24
6317 H 9.091958471146768 48.09523372405664 3.093522047773604 H 0.0 **** 0.06
6318 H 9.579489738060659 49.44176432971142 4.151710324645464 H 0.0 **** 0.06
6319 H 7.926521419422215 48.786347692484696 4.24842972700732 H 0.0 **** 0.06
6320 H 8.429738088143836 49.724868669599516 2.8214727626597664 H 0.0 **** 0.06
6321 C 84.15613537444383 88.86136260222369 6.378937314443249 C 0.0 **** -0.24
6322 H 84.14392720733892 89.94548734311155 6.491231105826955 H 0.0 **** 0.06
6323 H 83.88072961553192 88.39535927458545 7.325419748469315 H 0.0 **** 0.06
6324 H 85.15712017796116 88.53792181439815 6.091841649225728 H 0.0 **** 0.06
6325 H 83.4437274040369 88.56869877442435 5.607331726839675 H 0.0 **** 0.06
6326 C 13.924569720641149 112.16822761661058 99.0387110485153 C 0.0 **** -0.24
6327 H 13.197577488385054 111.50553572159845 98.56861087987545 H 0.0 **** 0.06
6328 H 14.23702674919424 111.745177628397 99.99426575248148 H 0.0 **** 0.06
6329 H 13.47025732862916 113.14528096418391 99.20496214923631 H 0.0 **** 0.06
6330 H 14.791363433385118 112.27693045438699 98.38788951868861 H 0.0 **** 0.06
6331 C 86.06892180986378 48.33246951801836 39.9984900509244 C 0.0 **** -0.24
6332 H 85.59081425217445 49.23100875116251 40.38734316764712 H 0.0 **** 0.06
6333 H 86.25329579842486 47.636303436112755 40.8163533503955 H 0.0 **** 0.06
6334 H 87.01523076553414 48.59948937245893 39.528099632798586 H 0.0 **** 0.06
6335 H 85.41634088828795 47.86400205839345 39.26178538335901 H 0.0 **** 0.06
6336 C 50.56359909373526 41.108697919755194 2.6936030942904665 C 0.0 **** -0.24
6337 H 49.8646265467697 40.31380566717431 2.4314330455392508 H 0.0 **** 0.06
6338 H 51.56109560409428 40.84338185354469 2.3433967511359555 H 0.0 **** 0.06
6339 H 50.57989981664619 41.23515608132056 3.7765989706502126 H 0.0 **** 0.06
6340 H 50.247433688642474 42.03898847477943 2.223467779091635 H 0.0 **** 0.06
6341 C 18.097658940085864 96.32445779324499 97.80895589773044 C 0.0 **** -0.24
6342 H 17.817505817492957 96.42843959747603 98.85724183563218 H 0.0 **** 0.06
6343 H 18.83667033096566 97.08498271918313 97.55402753223456 H 0.0 **** 0.06
6344 H 17.21486397660027 96.4513759216415 97.18294217030797 H 0.0 **** 0.06
6345 H 18.52271746286428 95.33451059674715 97.64321153955109 H 0.0 **** 0.06
6346 C 37.53498959839277 33.49867537810945 73.17308585292963 C 0.0 **** -0.24
6347 H 37.16780048396947 33.33186372793068 74.1861699895396 H 0.0 **** 0.06
6348 H 37.44137272940725 34.55550479328815 72.92265248076055 H 0.0 **** 0.06
6349 H 36.94889907176503 32.90466650016782 72.47216666301765 H 0.0 **** 0.06
6350 H 38.58240045601451 33.20195839123227 73.1140439800565 H 0.0 **** 0.06
6351 C 79.3681521273312 69.93454152466418 45.35842955910516 C 0.0 **** -0.24
6352 H 79.80402768393063 69.28379126276087 46.11650936235674 H 0.0 **** 0.06
6353 H 78.42083362377804 70.3331957747931 45.722831657702244 H 0.0 **** 0.06
6354 H 79.19671944492498 69.36408395281802 44.445403599858395 H 0.0 **** 0.06
6355 H 80.05252480216481 70.75687339559568 45.150281257595935 H 0.0 **** 0.06
6356 C 7.747079033302455 39.710515459087475 7.600725634785306 C 0.0 **** -0.24
6357 H 6.68112077736842 39.90368937807983 7.47853624638509 H 0.0 **** 0.06
6358 H 8.210665392894526 39.599295722785996 6.620575013674625 H 0.0 **** 0.06
6359 H 7.886403091588647 38.794551403687194 8.175926565947748 H 0.0 **** 0.06
6360 H 8.208340628965715 40.545421562664814 8.129281204817005 H 0.0 **** 0.06
6361 C 9.190299092009809 16.951901155557636 83.70853588882673 C 0.0 **** -0.24
6362 H 9.94245787283839 17.71250276298315 83.49740608428829 H 0.0 **** 0.06
6363 H 9.67151101903039 15.976057764532982 83.77508779617136 H 0.0 **** 0.06
6364 H 8.451926346585594 16.939471976896527 82.90718168446736 H 0.0 **** 0.06
6365 H 8.697967428625816 17.18039358868492 84.65336501914229 H 0.0 **** 0.06
6366 C 18.35299551930943 38.93153523667728 74.6461037226249 C 0.0 **** -0.24
6367 H 18.56423500836246 38.85099511627962 75.7130107619391 H 0.0 **** 0.06
6368 H 19.273636589167623 38.78032033775476 74.08243230376044 H 0.0 **** 0.06
6369 H 17.95036968029578 39.920767400320045 74.42883536778513 H 0.0 **** 0.06
6370 H 17.62371227913772 38.17181515333873 74.36212867228377 H 0.0 **** 0.06
6371 C 11.458615862207623 99.36084153456358 60.17614917452749 C 0.0 **** -0.24
6372 H 11.123874300611206 100.10897671580699 59.45815392362908 H 0.0 **** 0.06
6373 H 12.445127274274029 98.9964666244376 59.888434758208824 H 0.0 **** 0.06
6374 H 10.753158609226844 98.52933546753948 60.18986704980433 H 0.0 **** 0.06
6375 H 11.511663248693267 99.80805217715269 61.16869237116308 H 0.0 **** 0.06
6376 C 104.92056179995382 95.9715399796462 73.4618388705122 C 0.0 **** -0.24
6377 H 104.79829143937206 95.23563867776721 74.25718073245844 H 0.0 **** 0.06
6378 H 105.11548070135376 95.4573078891556 72.52074091165102 H 0.0 **** 0.06
6379 H 105.7576233549787 96.62668162486005 73.69907642565815 H 0.0 **** 0.06
6380 H 104.00942198149792 96.56345509625834 73.37105806799781 H 0.0 **** 0.06
6381 C 86.0631313801257 70.47666136551476 7.128307134704812 C 0.0 **** -0.24
6382 H 85.15916053671941 69.88964845077834 7.290569084728858 H 0.0 **** 0.06
6383 H 86.73639395181326 70.34810909040493 7.976130371443531 H 0.0 **** 0.06
6384 H 85.80001223968756 71.53006354162483 7.030897799728891 H 0.0 **** 0.06
6385 H 86.55686787680489 70.13922121357629 6.216985672205169 H 0.0 **** 0.06
6386 C 1.6406255269127428 4.7559976133737845 36.76554090044675 C 0.0 **** -0.24
6387 H 2.066867521154336 5.758366347292764 36.79387857373132 H 0.0 **** 0.06
6388 H 2.4109293911510576 4.026611160195307 37.01795683530929 H 0.0 **** 0.06
6389 H 1.2603355526225641 4.55154250248334 35.76456035679064 H 0.0 **** 0.06
6390 H 0.8241087120870247 4.687772935194854 37.484851064056386 H 0.0 **** 0.06
6391 C 107.62393531249498 76.54760515030964 68.18374065845842 C 0.0 **** -0.24
6392 H 106.75318083833525 76.01020539245002 67.8090828215899 H 0.0 **** 0.06
6393 H 107.958185246734 76.0919222809309 69.11718087611987 H 0.0 **** 0.06
6394 H 107.35883951027834 77.58971096850937 68.36271573995504 H 0.0 **** 0.06
6395 H 108.42613172412139 76.49830575585108 67.44758587610067 H 0.0 **** 0.06
6396 C 6.1155283202589885 9.49955264727015 7.787290414948188 C 0.0 **** -0.24
6397 H 5.414818288158642 10.331145443374794 7.715818487709043 H 0.0 **** 0.06
6398 H 6.989034964650671 9.808868532934241 8.360850516212622 H 0.0 **** 0.06
6399 H 6.425970397526669 9.199279806640561 6.786447602884067 H 0.0 **** 0.06
6400 H 5.6324699330918975 8.658715401968891 8.285082252833945 H 0.0 **** 0.06
6401 C 42.69477374890248 12.267176006428901 73.46800310188988 C 0.0 **** -0.24
6402 H 43.69715355798854 12.690492846847693 73.53611322562932 H 0.0 **** 0.06
6403 H 42.72027221921752 11.222074057423715 73.77762895835329 H 0.0 **** 0.06
6404 H 42.34063692296698 12.334111006294087 72.43904283287867 H 0.0 **** 0.06
6405 H 42.02138504837717 12.823337798502571 74.12030220338721 H 0.0 **** 0.06
6406 C 65.89984818736099 35.91420374506086 110.57544968594905 C 0.0 **** -0.24
6407 H 66.41752229091458 36.86156523943055 110.72665195050429 H 0.0 **** 0.06
6408 H 64.89068776988609 36.107192350632204 110.21046738134768 H 0.0 **** 0.06
6409 H 65.84855258928323 35.37359936363694 111.51962019717394 H 0.0 **** 0.06
6410 H 66.44262846037967 35.31674554598865 109.8428756810882 H 0.0 **** 0.06
6411 C 76.08915745523592 45.6665496015284 29.175864354795678 C 0.0 **** -0.24
6412 H 75.63533038478744 44.77868648991054 28.73493521363349 H 0.0 **** 0.06
6413 H 75.4534220127187 46.531613496189124 28.986657309816167 H 0.0 **** 0.06
6414 H 77.07036797047863 45.83206750441428 28.729521200404662 H 0.0 **** 0.06
6415 H 76.19908939160115 45.522271970682255 30.25032528131139 H 0.0 **** 0.06
6416 C 78.27465937730821 19.18251499866031 73.39882147918019 C 0.0 **** -0.24
6417 H 79.05115339983502 19.94291591977685 73.31370462670236 H 0.0 **** 0.06
6418 H 77.32516174574363 19.65921351273016 73.64335816647161 H 0.0 **** 0.06
6419 H 78.54096068812223 18.47729164029286 74.18597902591353 H 0.0 **** 0.06
6420 H 78.18209890553163 18.651087685980542 72.45112373335229 H 0.0 **** 0.06
6421 C 50.87604183082209 15.834692665772621 43.77493271972091 C 0.0 **** -0.24
6422 H 49.79390781790043 15.93789558984139 43.85683839480578 H 0.0 **** 0.06
6423 H 51.18678898197496 14.893366948271563 44.228089961794154 H 0.0 **** 0.06
6424 H 51.3602119101971 16.663663382506314 44.29218926645973 H 0.0 **** 0.06
6425 H 51.16355496072339 15.8455318014378 42.72364584339596 H 0.0 **** 0.06
6426 C 109.27577359126653 105.95678421171903 15.412798250918797 C 0.0 **** -0.24
6427 H 110.12711078649737 105.2766717122135 15.428300748770482 H 0.0 **** 0.06
6428 H 109.4913374889962 106.79387972271363 14.7471047566288 H 0.0 **** 0.06
6429 H 109.09268074022725 106.33103092503052 16.41981203935427 H 0.0 **** 0.06
6430 H 108.39318663511351 105.42614937867364 15.055582167275702 H 0.0 **** 0.06
6431 C 86.53393584188913 62.73738929887156 95.3579888217048 C 0.0 **** -0.24
6432 H 85.700143873444 62.1884630751465 94.9220137548354 H 0.0 **** 0.06
6433 H 86.18228468081745 63.70459603194536 95.71911770295148 H 0.0 **** 0.06
6434 H 87.3039422820593 62.88920684452182 94.60192409187198 H 0.0 **** 0.06
6435 H 86.94895930738946 62.169108641768275 96.1904892815233 H 0.0 **** 0.06
6436 C 29.100151670243633 47.8874185515596 36.34387300830045 C 0.0 **** -0.24
6437 H 29.98157052038141 48.13441241310324 35.75362125643923 H 0.0 **** 0.06
6438 H 28.49519604757711 48.78327504490079 36.48587040673641 H 0.0 **** 0.06
6439 H 29.40980051721499 47.50064641565862 37.315149147561954 H 0.0 **** 0.06
6440 H 28.51351639011739 47.131923208987395 35.82239611115676 H 0.0 **** 0.06
6441 C 59.715520722831116 22.229840358447532 36.79458184787052 C 0.0 **** -0.24
6442 H 58.90151301188848 22.220220347446453 36.069452676669556 H 0.0 **** 0.06
6443 H 60.45887228192004 22.96973268422984 36.49433975869178 H 0.0 **** 0.06
6444 H 60.17845277349414 21.243600878434926 36.83436903225362 H 0.0 **** 0.06
6445 H 59.322239234411825 22.4875667444337 37.77773806491078 H 0.0 **** 0.06
6446 C 1.8226130757776389 96.26186598663696 9.653163287946867 C 0.0 **** -0.24
6447 H 1.0378013840469293 95.82372617155104 10.269335723340149 H 0.0 **** 0.06
6448 H 2.386993855056346 95.46729535567908 9.1642662817369 H 0.0 **** 0.06
6449 H 2.492636848584965 96.84967454943526 10.282198853274068 H 0.0 **** 0.06
6450 H 1.3749969535862476 96.90696955661409 8.89828483280263 H 0.0 **** 0.06
6451 C 20.17061037104682 42.57248335668541 19.704532380681428 C 0.0 **** -0.24
6452 H 19.301733337131992 42.81070082197847 20.317676330057253 H 0.0 **** 0.06
6453 H 19.8925697546982 42.60806464266899 18.651458904925505 H 0.0 **** 0.06
6454 H 20.528055443577898 41.57366661125252 19.953477108735257 H 0.0 **** 0.06
6455 H 20.960838867747526 43.29965535007726 19.89640555626329 H 0.0 **** 0.06
6456 C 77.83715202597261 19.74300896724506 21.67188008923371 C 0.0 **** -0.24
6457 H 78.70069217127417 20.334929427678702 21.369360756677867 H 0.0 **** 0.06
6458 H 77.30495821027137 19.397970577071845 20.78522081925131 H 0.0 **** 0.06
6459 H 77.17273018303524 20.35650802802749 22.280829954350075 H 0.0 **** 0.06
6460 H 78.17206593687877 18.88363357999117 22.253377335288008 H 0.0 **** 0.06
6461 C 11.027067722322784 5.195054912744453 73.78909264974655 C 0.0 **** -0.24
6462 H 10.252371083679407 4.582177457370548 74.24999148689125 H 0.0 **** 0.06
6463 H 10.562027827275898 5.991113476132838 73.2078654721216 H 0.0 **** 0.06
6464 H 11.638208035695953 4.576223128989483 73.1328853113404 H 0.0 **** 0.06
6465 H 11.655038232925023 5.630992751152704 74.56635364351561 H 0.0 **** 0.06
6466 C 58.165961654696986 5.687330850543194 3.7354411479001612 C 0.0 **** -0.24
6467 H 57.851136621422455 6.7179429967799305 3.5725050365518882 H 0.0 **** 0.06
6468 H 58.359696836489405 5.2108472623079845 2.773714295932848 H 0.0 **** 0.06
6469 H 57.378335355677024 5.145736398485294 4.257726088527477 H 0.0 **** 0.06
6470 H 59.075413291119446 5.6765007498176026 4.336220493941937 H 0.0 **** 0.06
6471 C 32.73109322938885 56.632162564586615 60.720911736173804 C 0.0 **** -0.24
6472 H 31.95489543355191 57.223416405129534 60.23410138178673 H 0.0 **** 0.06
6473 H 33.11219367772267 55.88714165259246 60.02173526517075 H 0.0 **** 0.06
6474 H 32.311838440351664 56.13145208653422 61.59310367479577 H 0.0 **** 0.06
6475 H 33.54395861208832 57.28783716300498 61.0331713779278 H 0.0 **** 0.06
6476 C 35.365833864656054 100.14038656520174 57.5657766815687 C 0.0 **** -0.24
6477 H 36.20056925816186 100.3455990647511 56.89535140051743 H 0.0 **** 0.06
6478 H 35.59557552378732 100.52340007535335 58.560142720234914 H 0.0 **** 0.06
6479 H 35.20057618448868 99.06399591108865 57.61913852841614 H 0.0 **** 0.06
6480 H 34.46674527045462 100.62783536784806 57.18690225084928 H 0.0 **** 0.06
6481 C 7.923179663120635 54.874850942133776 21.519606506439832 C 0.0 **** -0.24
6482 H 7.457693737794045 54.388594853855864 22.377294268034653 H 0.0 **** 0.06
6483 H 8.858699638119134 55.33991205576649 21.83002221421101 H 0.0 **** 0.06
6484 H 7.25098592381093 55.636014104645994 21.12475773690253 H 0.0 **** 0.06
6485 H 8.125134537391745 54.13195296442825 20.746964091415034 H 0.0 **** 0.06
6486 C 9.686769705833512 98.69570860464151 70.36395639129509 C 0.0 **** -0.24
6487 H 10.266029743629844 98.13054887589729 69.63383265170214 H 0.0 **** 0.06
6488 H 10.336815963400824 98.99967484491285 71.18599344937891 H 0.0 **** 0.06
6489 H 8.879685007398052 98.07335584506092 70.74922988837147 H 0.0 **** 0.06
6490 H 9.267145331076193 99.58192980856563 69.88708555391955 H 0.0 **** 0.06
6491 C 96.97700213595999 73.22594588558596 72.9556963704253 C 0.0 **** -0.24
6492 H 96.39593358105776 72.31479249773821 72.81415409710138 H 0.0 **** 0.06
6493 H 96.5996615680848 73.76527302296878 73.82575030348201 H 0.0 **** 0.06
6494 H 96.88682958356304 73.85608584032022 72.07073651109275 H 0.0 **** 0.06
6495 H 98.0241539327406 72.96765798367304 73.11386360045981 H 0.0 **** 0.06
6496 C 10.913612081619078 97.33896964789469 74.57439366223312 C 0.0 **** -0.24
6497 H 11.90367133105758 97.66808309643756 74.88735742726604 H 0.0 **** 0.06
6498 H 10.17023046882889 97.689992464629 75.29012835469331 H 0.0 **** 0.06
6499 H 10.889524453217746 96.25023897317652 74.5306366251217 H 0.0 **** 0.06
6500 H 10.690427977435206 97.74648053831336 73.5887643828589 H 0.0 **** 0.06
6501 C 14.98476261855572 18.973078562988746 39.245194111255216 C 0.0 **** -0.24
6502 H 15.07716887734361 20.03025144019773 38.9975735450231 H 0.0 **** 0.06
6503 H 14.421099701310439 18.86457493462831 40.17205736668075 H 0.0 **** 0.06
6504 H 15.97825548873493 18.542281745260198 39.37243580353737 H 0.0 **** 0.06
6505 H 14.464901536899134 18.455320758510425 38.43929791193642 H 0.0 **** 0.06
6506 C 104.68794269869153 65.57315328287265 37.7960481572031 C 0.0 **** -0.24
6507 H 104.569671494788 65.18992647234828 38.80994635997399 H 0.0 **** 0.06
6508 H 105.37913517660996 66.41696398019988 37.806390087887365 H 0.0 **** 0.06
6509 H 103.72078917126629 65.89946477191788 37.415712560043715 H 0.0 **** 0.06
6510 H 105.08458826802496 64.78607126791496 37.15499701646857 H 0.0 **** 0.06
6511 C 89.48511207448044 3.578208226326467 61.630305259938325 C 0.0 **** -0.24
6512 H 89.27771465720286 3.650220773709899 60.562020199916276 H 0.0 **** 0.06
6513 H 89.17117366632655 2.6006324778834653 61.995612933857956 H 0.0 **** 0.06
6514 H 88.93821351251685 4.3580054281896246 62.15956004795669 H 0.0 **** 0.06
6515 H 90.55432678168518 3.703920010118999 61.80085978956987 H 0.0 **** 0.06
6516 C 93.58371664855275 92.10561582561917 40.45197598811052 C 0.0 **** -0.24
6517 H 94.34380851190781 92.60817546059761 39.85445735351925 H 0.0 **** 0.06
6518 H 93.85727600949144 92.1605118827321 41.50690406016639 H 0.0 **** 0.06
6519 H 93.51404845726893 91.06181765121133 40.14857360089292 H 0.0 **** 0.06
6520 H 92.62075099820069 92.59353059032136 40.30031273203991 H 0.0 **** 0.06
6521 C 80.94357016798497 0.9469348952221424 83.52405271257626 C 0.0 **** -0.24
6522 H 81.68291074566375 0.5722335716583018 82.81687892749139 H 0.0 **** 0.06
6523 H 80.23606440028269 0.15283144140215654 83.76308345166078 H 0.0 **** 0.06
6524 H 80.40981462034475 1.7872338896785607 83.07984103173243 H 0.0 **** 0.06
6525 H 81.44455812474453 1.274377616018171 84.43440739966317 H 0.0 **** 0.06
6526 C 55.29080131706265 0.3453375580411375 52.02810763935916 C 0.0 **** -0.24
6527 H 55.882352894180926 -0.5576741045911149 51.87350775459566 H 0.0 **** 0.06
6528 H 55.05008956069567 0.44406121223136097 53.0869919232985 H 0.0 **** 0.06
6529 H 54.36911628726602 0.2780051152275007 51.450139269403444 H 0.0 **** 0.06
6530 H 55.863218059969185 1.2138996776259035 51.70221299998096 H 0.0 **** 0.06
6531 C 71.09703897273431 82.35236692710566 1.3677087680635713 C 0.0 **** -0.24
6532 H 70.41745152467331 81.94095115846966 2.1142443488101037 H 0.0 **** 0.06
6533 H 71.60180808842352 83.22721038942282 1.7795079154884874 H 0.0 **** 0.06
6534 H 70.53030769696488 82.64267610591031 0.4827648946523855 H 0.0 **** 0.06
6535 H 71.83608306698102 81.5995604394069 1.0962819418755831 H 0.0 **** 0.06
6536 C 35.09848828109245 47.47416934665783 83.38103838911385 C 0.0 **** -0.24
6537 H 34.95898364872132 46.67093953101505 82.65573785976451 H 0.0 **** 0.06
6538 H 34.37372953419526 47.364607091697195 84.18761897810879 H 0.0 **** 0.06
6539 H 34.95408627773255 48.436141269182514 82.88894948667476 H 0.0 **** 0.06
6540 H 36.10746930231977 47.42243811466409 83.78912847738908 H 0.0 **** 0.06
6541 C 109.24582885614912 34.13318074032486 45.200163404350775 C 0.0 **** -0.24
6542 H 109.63041199105332 35.01046475695003 45.72095702314198 H 0.0 **** 0.06
6543 H 108.2509542534573 34.34966669522569 44.811216446937806 H 0.0 **** 0.06
6544 H 109.19020008250628 33.294308250546266 45.89476461475911 H 0.0 **** 0.06
6545 H 109.91181318760268 33.87974138042085 44.37540965675609 H 0.0 **** 0.06
6546 C 49.37297606299346 22.573692286239762 25.582061132968732 C 0.0 **** -0.24
6547 H 49.10355865709765 23.152488410804366 26.4657351215877 H 0.0 **** 0.06
6548 H 50.24287472170233 23.024580375727368 25.104437173517596 H 0.0 **** 0.06
6549 H 48.53593100543566 22.56774897430158 24.883353266949854 H 0.0 **** 0.06
6550 H 49.60831300047272 21.550518996434448 25.87650023246178 H 0.0 **** 0.06
6551 C 52.30063983111593 40.816492753424825 90.19584604053875 C 0.0 **** -0.24
6552 H 52.54419264482352 41.15766395074263 91.20135116454469 H 0.0 **** 0.06
6553 H 52.009141241371786 41.66967185983208 89.58230431962966 H 0.0 **** 0.06
6554 H 51.47593126167247 40.10550729186048 90.24397950736551 H 0.0 **** 0.06
6555 H 53.171977329747776 40.332652532159045 89.75400555004211 H 0.0 **** 0.06
6556 C 54.91089339978029 24.318062530926607 62.83510999833762 C 0.0 **** -0.24
6557 H 55.1600648623093 25.185145841639955 62.22206709836238 H 0.0 **** 0.06
6558 H 55.6327425413653 23.52219716353207 62.64875124328848 H 0.0 **** 0.06
6559 H 53.90998573936221 23.969104088240112 62.58105242208985 H 0.0 **** 0.06
6560 H 54.9423087883099 24.59818275898342 63.88860854583812 H 0.0 **** 0.06
6561 C 81.29461312682994 12.565647238005937 54.65602595504278 C 0.0 **** -0.24
6562 H 80.9902596461533 12.141939343577079 53.69844095782667 H 0.0 **** 0.06
6563 H 80.92400672955378 13.587059620254351 54.734956069995015 H 0.0 **** 0.06
6564 H 82.38261639138156 12.567965533293858 54.720824899397066 H 0.0 **** 0.06
6565 H 80.88326475022384 11.9643499006213 55.466345875867916 H 0.0 **** 0.06
6566 C 110.85340320123231 63.819027036687146 42.931920050663564 C 0.0 **** -0.24
6567 H 109.97116819495807 64.42228307518909 42.71500300689459 H 0.0 **** 0.06
6568 H 110.54474953452586 62.81144424893222 43.20982868321633 H 0.0 **** 0.06
6569 H 111.40713008211071 64.26897707678785 43.75570635137899 H 0.0 **** 0.06
6570 H 111.48898527021612 63.77407492702591 42.04737488601265 H 0.0 **** 0.06
6571 C 98.43544982334299 69.7298204984389 60.58627625843068 C 0.0 **** -0.24
6572 H 99.04543367970226 70.11106823902446 59.76672619825542 H 0.0 **** 0.06
6573 H 98.8428937080424 70.07949171305683 61.53514081240868 H 0.0 **** 0.06
6574 H 98.44024924007653 68.64063857411523 60.56637616952414 H 0.0 **** 0.06
6575 H 97.41363458425963 70.09143754055432 60.474499337582536 H 0.0 **** 0.06
6576 C 27.560999734490608 23.86386924741439 91.83938142056323 C 0.0 **** -0.24
6577 H 27.019945209729123 23.11752501088106 92.42039917324112 H 0.0 **** 0.06
6578 H 28.02154419154771 23.38580513376134 90.97501004321958 H 0.0 **** 0.06
6579 H 28.334297960529845 24.315750282026023 92.46043114625232 H 0.0 **** 0.06
6580 H 26.86768567743509 24.634822525199393 91.50348703425468 H 0.0 **** 0.06
6581 C 25.54696934412073 16.45334311736366 106.88718951257815 C 0.0 **** -0.24
6582 H 24.648091887981828 16.637248791051462 107.47581453912795 H 0.0 **** 0.06
6583 H 25.972902320068137 17.404748555296464 106.56759255051224 H 0.0 **** 0.06
6584 H 25.29228886599524 15.855015949941759 106.01278525427892 H 0.0 **** 0.06
6585 H 26.275333489241348 15.914964926730562 107.49511721384255 H 0.0 **** 0.06
6586 C 15.672621476857415 50.04828665091367 74.83485345171721 C 0.0 **** -0.24
6587 H 16.491552821584634 50.442797365348525 75.4359275808699 H 0.0 **** 0.06
6588 H 14.938112248214196 49.57494441857139 75.48803706534068 H 0.0 **** 0.06
6589 H 16.05994324730287 49.31257417063611 74.13003192817757 H 0.0 **** 0.06
6590 H 15.199535678317972 50.86308705602417 74.2857828020268 H 0.0 **** 0.06
6591 C 36.18848731172442 70.96942859890433 31.921714911240144 C 0.0 **** -0.24
6592 H 35.137245247565914 71.00416700080959 31.63417220755747 H 0.0 **** 0.06
6593 H 36.2918137183356 71.29011806808728 32.958756066208394 H 0.0 **** 0.06
6594 H 36.7632432198203 71.63449296455067 31.27759194628328 H 0.0 **** 0.06
6595 H 36.56080103394424 69.95055348783143 31.8176314876562 H 0.0 **** 0.06
6596 C 68.8955301568397 49.740383026723734 80.41238031193194 C 0.0 **** -0.24
6597 H 68.77424093912828 49.56259135621849 81.48078352255692 H 0.0 **** 0.06
6598 H 69.00977245800411 50.80942040116843 80.23276633347803 H 0.0 **** 0.06
6599 H 68.01556379013121 49.37384582179318 79.88247264128765 H 0.0 **** 0.06
6600 H 69.78058425949592 49.21369388696818 80.05461193687827 H 0.0 **** 0.06
6601 C 35.41575417882936 77.55091171905596 33.48026579265152 C 0.0 **** -0.24
6602 H 34.98868244942085 76.71923832155929 34.04032424207631 H 0.0 **** 0.06
6603 H 36.48850989036882 77.39625510677055 33.362839523915625 H 0.0 **** 0.06
6604 H 35.23899290961327 78.48126743124794 34.020734235892775 H 0.0 **** 0.06
6605 H 34.94701010019753 77.60625536535196 32.49841835752807 H 0.0 **** 0.06
6606 C 28.8179145732732 1.4924136895194522 94.3621159270358 C 0.0 **** -0.24
6607 H 28.078777056073214 1.1384217303712916 93.64372690193608 H 0.0 **** 0.06
6608 H 28.656349359054282 2.5522960045616685 94.55845885141201 H 0.0 **** 0.06
6609 H 29.81817563824992 1.3468645152999983 93.95382479704483 H 0.0 **** 0.06
6610 H 28.71949425226427 0.9307074744442332 95.29109599347458 H 0.0 **** 0.06
6611 C 44.10088849794861 82.67100712915459 75.85149105613516 C 0.0 **** -0.24
6612 H 44.594250356049464 81.73532390617612 76.11555052518588 H 0.0 **** 0.06
6613 H 44.62539095652542 83.50328112083668 76.32170654697734 H 0.0 **** 0.06
6614 H 43.06889421218335 82.64841218000487 76.19997862790694 H 0.0 **** 0.06
6615 H 44.11635774518931 82.79694214297456 74.76917759401351 H 0.0 **** 0.06
6616 C 25.55253171358774 4.713844936342269 109.52654872939948 C 0.0 **** -0.24
6617 H 24.749863824330646 4.076450118508916 109.89734178711528 H 0.0 **** 0.06
6618 H 25.567597297650252 5.645316127680928 110.09245228845016 H 0.0 **** 0.06
6619 H 25.385569776915702 4.9312946269784135 108.47156639018701 H 0.0 **** 0.06
6620 H 26.5072044128797 4.200894350600279 109.64581381151744 H 0.0 **** 0.06
6621 C 107.19427261987354 9.061862738314886 73.27772703272791 C 0.0 **** -0.24
6622 H 108.18755901755097 9.332306913630816 72.91728624820215 H 0.0 **** 0.06
6623 H 106.69401347071813 9.949946548216076 73.66320762691208 H 0.0 **** 0.06
6624 H 107.28697073898094 8.322054185823106 74.07307335716501 H 0.0 **** 0.06
6625 H 106.61226368069934 8.642724547043485 72.45745749600403 H 0.0 **** 0.06
6626 C 107.90457878207344 72.32456230314773 52.69969383497795 C 0.0 **** -0.24
6627 H 107.34502436420458 73.254896097103 52.79957027385822 H 0.0 **** 0.06
6628 H 107.51195490710802 71.75319930131116 51.85782788765769 H 0.0 **** 0.06
6629 H 107.8043890441688 71.74032657013285 53.61415541777919 H 0.0 **** 0.06
6630 H 108.95648635599417 72.55050511185573 52.52664858396665 H 0.0 **** 0.06
6631 C 50.72467028932675 85.45176565634543 48.687362845320536 C 0.0 **** -0.24
6632 H 51.10250803835453 84.64727458101905 49.31704295610213 H 0.0 **** 0.06
6633 H 49.773068987562226 85.15235689760692 48.246448077918444 H 0.0 **** 0.06
6634 H 51.44354040433922 85.6608984816996 47.895290502212546 H 0.0 **** 0.06
6635 H 50.57904224968104 86.34712444147073 49.29128459601587 H 0.0 **** 0.06
6636 C 82.37069308565142 60.01336582816981 77.23450065049582 C 0.0 **** -0.24
6637 H 81.86461377431203 59.062240618209216 77.39543813303851 H 0.0 **** 0.06
6638 H 82.4189969989616 60.22263431824484 76.16527621546172 H 0.0 **** 0.06
6639 H 83.38003198046906 59.96206693222092 77.64135657313545 H 0.0 **** 0.06
6640 H 81.81778928677446 60.80799548753487 77.73575557562106 H 0.0 **** 0.06
6641 C 94.40309781365949 100.689403038232 12.592548450483278 C 0.0 **** -0.24
6642 H 95.27109031107588 101.34707640064099 12.650221917634937 H 0.0 **** 0.06
6643 H 94.64775952452482 99.72503013655563 13.037976282508183 H 0.0 **** 0.06
6644 H 94.12268234475673 100.54868680375787 11.548591312498516 H 0.0 **** 0.06
6645 H 93.57099550520454 101.13972535333113 13.134134983791114 H 0.0 **** 0.06
6646 C 84.25104591695788 56.328881828642466 69.39463712308623 C 0.0 **** -0.24
6647 H 84.87922872220594 55.75904365182322 68.71047035537202 H 0.0 **** 0.06
6648 H 84.12043508087052 55.76868854949092 70.32031129314115 H 0.0 **** 0.06
6649 H 83.27712658442124 56.50185300263033 68.9344853936756 H 0.0 **** 0.06
6650 H 84.72526301479647 57.2855976598029 69.61119726377163 H 0.0 **** 0.06
6651 C 63.87264048610052 47.94945860542117 23.109269638371757 C 0.0 **** -0.24
6652 H 62.89968615003863 47.54481463649685 23.387671318830655 H 0.0 **** 0.06
6653 H 64.19618068577228 47.50254081660006 22.168376600255584 H 0.0 **** 0.06
6654 H 64.59828200572593 47.719003955331914 23.889550646528875 H 0.0 **** 0.06
6655 H 63.79705066173716 49.03073035855968 22.99128233972067 H 0.0 **** 0.06
6656 C 47.862323533642495 92.03177300380179 11.976412234587201 C 0.0 **** -0.24
6657 H 48.21548801278861 93.05735368876356 12.084335836635717 H 0.0 **** 0.06
6658 H 48.678165978833334 91.34233956974447 12.194831702438577 H 0.0 **** 0.06
6659 H 47.51534214567888 91.87314331027659 10.95582570088412 H 0.0 **** 0.06
6660 H 47.04059237388727 91.85639078527828 12.671250638722128 H 0.0 **** 0.06
6661 C 40.72305426144774 12.462713040266589 34.778498581835095 C 0.0 **** -0.24
6662 H 41.64306842987085 12.280318868954186 35.33345593282776 H 0.0 **** 0.06
6663 H 40.897605490742166 12.28012176995718 33.718071923377636 H 0.0 **** 0.06
6664 H 40.41066325147946 13.497517045001068 34.92258875810498 H 0.0 **** 0.06
6665 H 39.94183980870332 11.793849103881584 35.13946865796788 H 0.0 **** 0.06
6666 C 69.14481177424585 31.361980131046863 86.31942771118534 C 0.0 **** -0.24
6667 H 70.19185101256579 31.523558780482716 86.57284136300217 H 0.0 **** 0.06
6668 H 68.51277932491479 31.790850266777568 87.09694733773392 H 0.0 **** 0.06
6669 H 68.9512216556808 30.291916398476957 86.2412491105616 H 0.0 **** 0.06
6670 H 68.92473450638369 31.841964764154994 85.36563886545574 H 0.0 **** 0.06
6671 C 25.32050049805423 77.54219277123912 24.519383774295648 C 0.0 **** -0.24
6672 H 25.54808553872175 77.85275044339122 25.539171682265987 H 0.0 **** 0.06
6673 H 24.801016918893765 76.58451212858733 24.53879889975562 H 0.0 **** 0.06
6674 H 26.248146593260515 77.44081581810386 23.95594270847903 H 0.0 **** 0.06
6675 H 24.68628207464451 78.29148062427129 24.04536572724973 H 0.0 **** 0.06
6676 C 85.03102391308585 33.783591157996455 18.699853750223355 C 0.0 **** -0.24
6677 H 85.11889837143187 34.86890168111046 18.743528744504374 H 0.0 **** 0.06
6678 H 85.06766842160485 33.37491535721961 19.7095976040886 H 0.0 **** 0.06
6679 H 85.85373600534513 33.37683088820887 18.112135906137283 H 0.0 **** 0.06
6680 H 84.08394912271442 33.51454900891639 18.232641779193685 H 0.0 **** 0.06
6681 C 57.281148782915594 110.78708040071321 90.82124412497171 C 0.0 **** -0.24
6682 H 57.51617317962357 109.76062602827574 91.10198656732348 H 0.0 **** 0.06
6683 H 56.205562981019334 110.88641420575757 90.67130603179436 H 0.0 **** 0.06
6684 H 57.802407577433506 111.03820747512498 89.89691847297004 H 0.0 **** 0.06
6685 H 57.602311547602405 111.46298395561404 91.61352767911876 H 0.0 **** 0.06
6686 C 25.15436492307579 41.923325769372184 111.81913732186558 C 0.0 **** -0.24
6687 H 24.081004602822432 41.852743956036164 111.6439654024864 H 0.0 **** 0.06
6688 H 25.449345345081866 41.18458167491835 112.56478210293892 H 0.0 **** 0.06
6689 H 25.39821818370197 42.92205360510488 112.18045664245545 H 0.0 **** 0.06
6690 H 25.688082357042404 41.73339268243251 110.88759636913585 H 0.0 **** 0.06
6691 C 91.37140621739306 56.94732174285963 28.027279132922708 C 0.0 **** -0.24
6692 H 90.91046554719912 57.88249537154593 28.34382505734498 H 0.0 **** 0.06
6693 H 92.08443788543084 56.618367337166035 28.78341354154962 H 0.0 **** 0.06
6694 H 91.89078645192996 57.10072501500184 27.08028963467268 H 0.0 **** 0.06
6695 H 90.60055140915091 56.18716789706474 27.898700704268578 H 0.0 **** 0.06
6696 C 89.0106647127931 4.513883646015842 99.91105884188528 C 0.0 **** -0.24
6697 H 88.75803885408317 3.5073823683897274 99.57569215706701 H 0.0 **** 0.06
6698 H 88.41885788265816 5.240250805412046 99.35369465414723 H 0.0 **** 0.06
6699 H 90.07074631323405 4.698686829797765 99.73917476041842 H 0.0 **** 0.06
6700 H 88.79221630614776 4.607525341752904 100.97511708771839 H 0.0 **** 0.06
6701 C 7.030240871340737 81.00722705281288 110.41894407971182 C 0.0 **** -0.24
6702 H 6.753741630527259 81.17068972699036 109.37762305297709 H 0.0 **** 0.06
6703 H 6.757827431330554 79.99338747004845 110.71230667110697 H 0.0 **** 0.06
6704 H 6.503455574338545 81.72224016051922 111.05102786073799 H 0.0 **** 0.06
6705 H 8.10537183841538 81.14341403650616 110.5347883105394 H 0.0 **** 0.06
6706 C 75.41197026255048 26.44564017495844 63.049065050472514 C 0.0 **** -0.24
6707 H 75.8420895191939 27.066107630743403 63.83602185872987 H 0.0 **** 0.06
6708 H 75.45991545782897 26.979176340058274 62.09962741435874 H 0.0 **** 0.06
6709 H 74.37189003280312 26.224022838090264 63.29047408373513 H 0.0 **** 0.06
6710 H 75.97397990440254 25.51524365349053 62.972790414607296 H 0.0 **** 0.06
6711 C 68.08154677552591 100.24731714837787 89.53545736153558 C 0.0 **** -0.24
6712 H 68.95682045907361 100.2339200994767 90.18648578041686 H 0.0 **** 0.06
6713 H 67.19451379467333 100.4792693003547 90.12485966501356 H 0.0 **** 0.06
6714 H 67.96263798965586 99.269712466594 89.06838759058598 H 0.0 **** 0.06
6715 H 68.21492755236528 101.00454282284926 88.7639172507418 H 0.0 **** 0.06
6716 C 112.39446118429058 55.98279120716404 21.449833393948325 C 0.0 **** -0.24
6717 H 113.14445525973773 55.31491935053077 21.025813968825048 H 0.0 **** 0.06
6718 H 112.75062282524169 57.01213952797434 21.390189321398793 H 0.0 **** 0.06
6719 H 112.22053447121803 55.717578956355396 22.491960673105496 H 0.0 **** 0.06
6720 H 111.46470224693104 55.887235206393825 20.889821155312006 H 0.0 **** 0.06
6721 C 56.12377809653813 65.8757638108683 79.99763388179372 C 0.0 **** -0.24
6722 H 56.31678401504411 66.93216695165495 79.8101838223165 H 0.0 **** 0.06
6723 H 56.03658161739338 65.70759713189739 81.07131826961438 H 0.0 **** 0.06
6724 H 56.94740012217761 65.28136707861881 79.60261533733308 H 0.0 **** 0.06
6725 H 55.19585601946096 65.58356261980612 79.50661103128027 H 0.0 **** 0.06
6726 C 10.847676758740157 71.4037086973864 27.272369800347008 C 0.0 **** -0.24
6727 H 11.36483382523134 70.74449661305351 26.575075462594185 H 0.0 **** 0.06
6728 H 11.417095433886395 72.32632551774924 27.390683120543656 H 0.0 **** 0.06
6729 H 10.752833754394029 70.90807291138884 28.238539745893547 H 0.0 **** 0.06
6730 H 9.856119181498524 71.63615325594861 26.88421973253304 H 0.0 **** 0.06
6731 C 88.40452611614296 62.17165536418704 9.981255091580778 C 0.0 **** -0.24
6732 H 88.36251225118448 63.24294505027573 9.78398713451444 H 0.0 **** 0.06
6733 H 88.0964702599544 61.62558971399668 9.090059130940125 H 0.0 **** 0.06
6734 H 87.7362563340576 61.929094667742426 10.806889477552009 H 0.0 **** 0.06
6735 H 89.42462979376478 61.89097991878928 10.246068707464282 H 0.0 **** 0.06
6736 C 65.89889680459783 14.423002523893786 98.32549137433537 C 0.0 **** -0.24
6737 H 65.64148003170703 14.671706367788829 99.35456102017184 H 0.0 **** 0.06
6738 H 65.04590124548645 14.62832728786671 97.67826904888861 H 0.0 **** 0.06
6739 H 66.15726970020796 13.365273653593079 98.26126861791593 H 0.0 **** 0.06
6740 H 66.75071112971148 15.02447808885887 98.00784865244603 H 0.0 **** 0.06
6741 C 17.82166760460583 12.580164406148256 55.85915814801467 C 0.0 **** -0.24
6742 H 18.075770997283886 11.794658516030537 56.571220913195106 H 0.0 **** 0.06
6743 H 17.17985138025667 13.316749205750838 56.3440099190714 H 0.0 **** 0.06
6744 H 17.297259811544624 12.14407057826206 55.008587127610525 H 0.0 **** 0.06
6745 H 18.73453864542868 13.065517866561862 55.51338236602754 H 0.0 **** 0.06
6746 C 104.08211630915397 65.1780057422946 21.70966299764723 C 0.0 **** -0.24
6747 H 103.61414401578574 64.19479948804661 21.662932160663132 H 0.0 **** 0.06
6748 H 104.96335297231798 65.13076728246097 22.349481616756833 H 0.0 **** 0.06
6749 H 103.37429940700864 65.89846111050622 22.118620990666415 H 0.0 **** 0.06
6750 H 104.3772530990233 65.48726811689212 20.706554081229058 H 0.0 **** 0.06
6751 C 93.62641695569488 56.454227154785315 67.87876078398722 C 0.0 **** -0.24
6752 H 94.32841894022232 56.36923782092509 67.04872255168237 H 0.0 **** 0.06
6753 H 92.79347028004904 55.768702522552076 67.71992044499063 H 0.0 **** 0.06
6754 H 93.25119635724798 57.47596947079762 67.93423614929432 H 0.0 **** 0.06
6755 H 94.13244968908234 56.20112035594224 68.80982853092388 H 0.0 **** 0.06
6756 C 49.982669562141325 94.15734742745889 90.68162476589907 C 0.0 **** -0.24
6757 H 49.316330417139 94.16007802072204 91.54423306503332 H 0.0 **** 0.06
6758 H 50.34291538740132 95.16953190057541 90.49833833616967 H 0.0 **** 0.06
6759 H 49.440919654849495 93.79990803926665 89.80588478416203 H 0.0 **** 0.06
6760 H 50.829307496942306 93.49989517165048 90.87878236147782 H 0.0 **** 0.06
6761 C 24.22668073758149 80.06998614844207 49.2712120123814 C 0.0 **** -0.24
6762 H 23.83314997253035 79.24453976170417 48.67877286884601 H 0.0 **** 0.06
6763 H 25.180708618213544 80.39460585340777 48.85372268481203 H 0.0 **** 0.06
6764 H 24.373436325570935 79.74087380285408 50.299856383908605 H 0.0 **** 0.06
6765 H 23.52028954867751 80.90039470072435 49.25230273266786 H 0.0 **** 0.06
6766 C 52.21803649609865 97.85040678493493 61.56203034907125 C 0.0 **** -0.24
6767 H 51.96304506318947 96.83703520029928 61.248644155002665 H 0.0 **** 0.06
6768 H 51.40013165551525 98.26393936404355 62.15220310142112 H 0.0 **** 0.06
6769 H 52.383055757403525 98.47248562109394 60.68222129897876 H 0.0 **** 0.06
6770 H 53.12547228336447 97.82597528383258 62.165006099721296 H 0.0 **** 0.06
6771 C 85.81160581271106 50.27357731467299 95.3375577911313 C 0.0 **** -0.24
6772 H 86.02485823519282 51.037121632505546 94.58881489476167 H 0.0 **** 0.06
6773 H 85.10671824315307 50.6686641884491 96.0689942258523 H 0.0 **** 0.06
6774 H 86.73682588309896 49.98943667816627 95.8395123160924 H 0.0 **** 0.06
6775 H 85.37903558406279 49.399243283868145 94.85068571450364 H 0.0 **** 0.06
6776 C 105.58844775129862 15.485232238252195 55.684558564124735 C 0.0 **** -0.24
6777 H 104.83145093942105 16.26989832423294 55.698284348339946 H 0.0 **** 0.06
6778 H 106.46561768989895 15.836841158697837 55.14053236287382 H 0.0 **** 0.06
6779 H 105.184614861802 14.600901907497473 55.190918722930284 H 0.0 **** 0.06
6780 H 105.87014642666281 15.23504286597938 56.70648048885702 H 0.0 **** 0.06
6781 C 52.66645757418751 35.93804432285219 40.25657352514361 C 0.0 **** -0.24
6782 H 51.64657085502855 35.58705085826762 40.09797944852136 H 0.0 **** 0.06
6783 H 53.18830870064327 35.248410235366634 40.92078785330068 H 0.0 **** 0.06
6784 H 52.64233270668775 36.93036087205314 40.708200928270685 H 0.0 **** 0.06
6785 H 53.18643446269978 35.986209996142975 39.29978541112587 H 0.0 **** 0.06
6786 C 11.211223354850851 3.2012359378491624 45.0513614383419 C 0.0 **** -0.24
6787 H 10.484310700873369 2.465320534974694 45.395284266505314 H 0.0 **** 0.06
6788 H 12.179600311451093 2.996907095264987 45.508944467072496 H 0.0 **** 0.06
6789 H 10.87817851614998 4.200186401192752 45.33341907872165 H 0.0 **** 0.06
6790 H 11.302158083230086 3.1419686544948604 43.96667177438343 H 0.0 **** 0.06
6791 C 16.89846302539835 49.939809304288644 78.8096892826768 C 0.0 **** -0.24
6792 H 17.269291892392218 49.73678479024045 77.80440352351843 H 0.0 **** 0.06
6793 H 17.50133323018745 49.39275664400532 79.53569299414679 H 0.0 **** 0.06
6794 H 15.859152937535526 49.6195815323606 78.88454993410176 H 0.0 **** 0.06
6795 H 16.9656204586327 51.00882615934688 79.01147438627788 H 0.0 **** 0.06
6796 C 19.882465695972144 43.168643897711604 67.19173843590079 C 0.0 **** -0.24
6797 H 18.935855369323747 43.42485455466277 66.7166496652631 H 0.0 **** 0.06
6798 H 20.70046930492316 43.36070513186348 66.4972616689324 H 0.0 **** 0.06
6799 H 19.87692704607838 42.1137249402604 67.46472500477435 H 0.0 **** 0.06
6800 H 20.014912704657604 43.775298133314266 68.08655222306433 H 0.0 **** 0.06
6801 C 103.15811659123818 77.37521001929093 10.798303083236988 C 0.0 **** -0.24
6802 H 103.78759830572363 78.26466777926575 10.840137428835249 H 0.0 **** 0.06
6803 H 102.11207749155068 77.66647763311533 10.892599206040614 H 0.0 **** 0.06
6804 H 103.42371406955635 76.70438416969117 11.61586292629977 H 0.0 **** 0.06
6805 H 103.31049295916478 76.86632034340914 9.84705702114644 H 0.0 **** 0.06
6806 C 60.582873215553384 8.43811172745474 38.95112172437326 C 0.0 **** -0.24
6807 H 59.53880735380566 8.524459212854794 39.2533782749707 H 0.0 **** 0.06
6808 H 60.76630506818508 7.434842642001698 38.564752257016515 H 0.0 **** 0.06
6809 H 61.225893998696584 8.619970370248922 39.8119916740523 H 0.0 **** 0.06
6810 H 60.79791000567423 9.171641897258013 38.174478934312276 H 0.0 **** 0.06
6811 C 47.87217540751408 103.77963335000095 101.1529022527389 C 0.0 **** -0.24
6812 H 48.28065187635405 103.09831607523893 101.89863148085331 H 0.0 **** 0.06
6813 H 47.10448056539415 104.40305800568615 101.61293899627202 H 0.0 **** 0.06
6814 H 47.43347426261907 103.2051647328019 100.33703001761978 H 0.0 **** 0.06
6815 H 48.66933929270277 104.41308384512661 100.76450610121455 H 0.0 **** 0.06
6816 C 37.198299125188356 40.27863491335029 112.1638102536823 C 0.0 **** -0.24
6817 H 37.56600951686934 39.34274368818288 112.58369360970586 H 0.0 **** 0.06
6818 H 37.36044708447349 40.281466348943596 111.08571079625524 H 0.0 **** 0.06
6819 H 37.73443400769892 41.11386390833998 112.61413934306756 H 0.0 **** 0.06
6820 H 36.13230589171192 40.37646570793454 112.3716972657005 H 0.0 **** 0.06
6821 C 60.01874801924101 96.91225214179974 109.55741209067212 C 0.0 **** -0.24
6822 H 60.60527336811412 96.57398117352403 108.7025493994897 H 0.0 **** 0.06
6823 H 60.566716024026796 97.69066836792086 110.08852191389404 H 0.0 **** 0.06
6824 H 59.838845227889216 96.07184125071655 110.22863855900633 H 0.0 **** 0.06
6825 H 59.06505837201629 97.30933048737649 109.21011219505219 H 0.0 **** 0.06
6826 C 54.81405360813929 71.04172254417892 46.52466990319871 C 0.0 **** -0.24
6827 H 55.65480692353256 70.34886766167324 46.563981280573614 H 0.0 **** 0.06
6828 H 54.94170445607065 71.71887695039152 45.67917557967303 H 0.0 **** 0.06
6829 H 54.774707056644445 71.61833347387136 47.44959214541842 H 0.0 **** 0.06
6830 H 53.88715446424908 70.48133058098762 46.40619980534038 H 0.0 **** 0.06
6831 C 49.28904355250053 7.639220793619842 84.74349872767164 C 0.0 **** -0.24
6832 H 50.09876167270475 7.963882576902222 84.09021114419284 H 0.0 **** 0.06
6833 H 49.328563692247535 6.555464485203913 84.85942065420602 H 0.0 **** 0.06
6834 H 48.332069639475584 7.923600378415287 84.30485351030984 H 0.0 **** 0.06
6835 H 49.39640017415592 8.113854681588336 85.71858774384259 H 0.0 **** 0.06
6836 C 14.571151842920617 5.9392985419957895 46.97004605774751 C 0.0 **** -0.24
6837 H 13.561542618291494 5.543917285297379 46.8588288844043 H 0.0 **** 0.06
6838 H 15.238591202877654 5.142876744990966 47.29979510496073 H 0.0 **** 0.06
6839 H 14.567654908756474 6.740481709183339 47.709384760865134 H 0.0 **** 0.06
6840 H 14.916004449037377 6.3302340042787915 46.0126628808775 H 0.0 **** 0.06
6841 C 11.08338165793009 86.87015095142792 93.46863761573559 C 0.0 **** -0.24
6842 H 11.255659162221889 87.04581620493116 94.53047355692928 H 0.0 **** 0.06
6843 H 12.028388923148583 86.623604225099 92.98376400657622 H 0.0 **** 0.06
6844 H 10.664577683314008 87.76736267128791 93.01434621750462 H 0.0 **** 0.06
6845 H 10.386145284916381 86.04181899880254 93.34663371210706 H 0.0 **** 0.06
6846 C 32.649017398844876 36.00022225845473 83.80459877496003 C 0.0 **** -0.24
6847 H 32.30977573529378 35.58933500224376 84.75555889705043 H 0.0 **** 0.06
6848 H 32.10041353451689 35.5277153206971 82.9891526119809 H 0.0 **** 0.06
6849 H 33.71540949043464 35.807529671371384 83.68625657480288 H 0.0 **** 0.06
6850 H 32.46953435405163 37.074848126895915 83.7888373426149 H 0.0 **** 0.06
6851 C 38.85830652382742 17.156361837104583 80.22552832258341 C 0.0 **** -0.24
6852 H 37.819784957342506 17.06136891781251 80.54341150737883 H 0.0 **** 0.06
6853 H 39.102062416340516 16.348463118360876 79.5363149595436 H 0.0 **** 0.06
6854 H 39.51093537832179 17.10132120622223 81.09675475154478 H 0.0 **** 0.06
6855 H 38.99896705163144 18.115826135812217 79.72749591236598 H 0.0 **** 0.06
6856 C 34.92658299656409 74.17490359200713 13.412751007365593 C 0.0 **** -0.24
6857 H 35.846312257449796 73.76070829351556 12.998584637876156 H 0.0 **** 0.06
6858 H 34.143438816029914 74.15019001606913 12.655166815626323 H 0.0 **** 0.06
6859 H 35.100100395376046 75.20563118073471 13.723676723741779 H 0.0 **** 0.06
6860 H 34.61901735327436 73.58294781210941 14.275171529906178 H 0.0 **** 0.06
6861 C 93.78101789165123 74.34483854770772 96.73206387535976 C 0.0 **** -0.24
6862 H 92.93362223176257 75.02582303613016 96.64645329680289 H 0.0 **** 0.06
6863 H 93.43074668438103 73.31727526497073 96.63280064160836 H 0.0 **** 0.06
6864 H 94.25569275482488 74.47611145378528 97.70363605347333 H 0.0 **** 0.06
6865 H 94.50117144948715 74.56109247805108 95.94311934977569 H 0.0 **** 0.06
6866 C 23.166136845571856 24.093817271299642 72.95554091747175 C 0.0 **** -0.24
6867 H 23.547635357485063 23.408374527519044 73.71281204561035 H 0.0 **** 0.06
6868 H 23.442197313821964 23.72952795028145 71.96485407131473 H 0.0 **** 0.06
6869 H 23.593953829999094 25.08374141132653 73.11173366113678 H 0.0 **** 0.06
6870 H 22.0801019427945 24.150852268567974 73.0318273107884 H 0.0 **** 0.06
6871 C 78.41123221485327 66.03549055183424 43.16873979828355 C 0.0 **** -0.24
6872 H 79.34980644774816 66.1316027696545 43.71406282963477 H 0.0 **** 0.06
6873 H 77.59781190879968 66.43901584788236 43.77292703058524 H 0.0 **** 0.06
6874 H 78.22012915522913 64.98380862354213 42.95649205682551 H 0.0 **** 0.06
6875 H 78.47763439784006 66.58980312100223 42.232283849029756 H 0.0 **** 0.06
6876 C 74.90814114549988 36.42097296309353 22.37331653064677 C 0.0 **** -0.24
6877 H 73.93940221461457 36.40822783605154 21.87468260975656 H 0.0 **** 0.06
6878 H 74.77193025127127 36.67561563262143 23.424064862495634 H 0.0 **** 0.06
6879 H 75.5510428988893 37.161819631107676 21.899366252550713 H 0.0 **** 0.06
6880 H 75.37017545512913 35.43650354871821 22.294998604530665 H 0.0 **** 0.06
6881 C 86.07016920110044 19.084097494280257 56.61726709353391 C 0.0 **** -0.24
6882 H 86.87180614203777 19.82149880225036 56.60285078820036 H 0.0 **** 0.06
6883 H 85.91641772971556 18.733804363059463 57.63777852372564 H 0.0 **** 0.06
6884 H 86.34163226627115 18.24088562203265 55.98067457303301 H 0.0 **** 0.06
6885 H 85.1515413411106 19.538140309021003 56.24596619770355 H 0.0 **** 0.06
6886 C 70.2247265008896 16.257803008341426 66.82330153040789 C 0.0 **** -0.24
6887 H 70.98347327740794 16.46271366981898 66.06833708466618 H 0.0 **** 0.06
6888 H 69.29041648564282 15.981355802073182 66.33461335647999 H 0.0 **** 0.06
6889 H 70.06770617128922 17.14984233764602 67.4312217109651 H 0.0 **** 0.06
6890 H 70.55817694346038 15.439405446693002 67.46071236742449 H 0.0 **** 0.06
6891 C 15.735273659776478 55.916916722890974 26.987137546005982 C 0.0 **** -0.24
6892 H 16.601593335209397 56.42560828908218 26.564219702838187 H 0.0 **** 0.06
6893 H 16.04748555861957 55.32066290931725 27.84422942048525 H 0.0 **** 0.06
6894 H 15.293528711569788 55.265165114218185 26.232897749661447 H 0.0 **** 0.06
6895 H 14.99917399822694 56.655450022128676 27.304985395092643 H 0.0 **** 0.06
6896 C 8.949689844954662 16.86016217230278 66.51343607154229 C 0.0 **** -0.24
6897 H 8.715342108223922 16.482194794814745 65.51815208964143 H 0.0 **** 0.06
6898 H 8.553259892912763 16.177799450457798 67.26437130039938 H 0.0 **** 0.06
6899 H 8.498980796978344 17.84422146404563 66.64218797758087 H 0.0 **** 0.06
6900 H 10.031263445789932 16.938479034287866 66.62590131988662 H 0.0 **** 0.06
6901 C 15.944655117546375 23.132637193379352 74.83307646710583 C 0.0 **** -0.24
6902 H 16.1028811938031 24.07436682322175 74.30830017558873 H 0.0 **** 0.06
6903 H 15.907106307873434 23.316749085241767 75.90667847809186 H 0.0 **** 0.06
6904 H 16.76539853098876 22.450501179528494 74.60896899911015 H 0.0 **** 0.06
6905 H 15.004628949159738 22.688178101292994 74.50649065346917 H 0.0 **** 0.06
6906 C 56.852590952340826 22.633491218711242 46.907725784292765 C 0.0 **** -0.24
6907 H 56.982786506617906 23.715286209404127 46.94774011752213 H 0.0 **** 0.06
6908 H 56.41563415905276 22.286036369151873 47.844698228634 H 0.0 **** 0.06
6909 H 57.82092327242402 22.155679312975735 46.758790586269214 H 0.0 **** 0.06
6910 H 56.19021493076459 22.37889886330018 46.08094100378321 H 0.0 **** 0.06
6911 C 49.54243229387064 44.5201533886347 23.972550766795223 C 0.0 **** -0.24
6912 H 48.72184899120482 44.215782197983486 24.623157159787013 H 0.0 **** 0.06
6913 H 50.24802272791689 43.69593022106193 23.868499361625766 H 0.0 **** 0.06
6914 H 50.0491479065295 45.38136595798558 24.407373207395892 H 0.0 **** 0.06
6915 H 49.14770043100823 44.78797967525526 22.992495552280957 H 0.0 **** 0.06
6916 C 53.71043547127036 55.6687528740394 72.84426578614841 C 0.0 **** -0.24
6917 H 54.71848076010178 55.25497138350477 72.80530416352704 H 0.0 **** 0.06
6918 H 53.498678856939016 56.19724828226697 71.91490465303673 H 0.0 **** 0.06
6919 H 53.63533117766899 56.36228200200404 73.68161222862318 H 0.0 **** 0.06
6920 H 52.99037466046755 54.861202947616135 72.97574933644626 H 0.0 **** 0.06
6921 C 59.011482145581915 80.8138094955265 81.88199788871165 C 0.0 **** -0.24
6922 H 58.83787680740772 80.6977072316241 80.81240459459474 H 0.0 **** 0.06
6923 H 59.395127147848505 79.87927346759321 82.29154925805179 H 0.0 **** 0.06
6924 H 58.07301116128732 81.07001901987326 82.37575329171011 H 0.0 **** 0.06
6925 H 59.73765521184978 81.61020344132643 82.04848157510776 H 0.0 **** 0.06
6926 C 52.61381857268947 79.08351341591299 32.01466968042442 C 0.0 **** -0.24
6927 H 52.43168003517218 80.13224323250427 31.776158011103803 H 0.0 **** 0.06
6928 H 52.484463283468074 78.92723010281202 33.08555254801587 H 0.0 **** 0.06
6929 H 53.631549485224696 78.81805616303711 31.72797708336617 H 0.0 **** 0.06
6930 H 51.90678943034476 78.45914488732768 31.468280504613602 H 0.0 **** 0.06
6931 C 43.04149449029246 66.8755410046553 97.6238852469699 C 0.0 **** -0.24
6932 H 42.078414339908306 67.07542760711047 97.152777579282 H 0.0 **** 0.06
6933 H 42.924280621387794 66.8856888290116 98.70811557017254 H 0.0 **** 0.06
6934 H 43.75691921179386 67.64240620334684 97.32754152133364 H 0.0 **** 0.06
6935 H 43.404082707426035 65.89811278071707 97.30638687627606 H 0.0 **** 0.06
6936 C 24.229957495074913 90.24217804978971 48.336373875693894 C 0.0 **** -0.24
6937 H 23.45139562662527 90.70613172219132 47.730872601367366 H 0.0 **** 0.06
6938 H 24.915210394917096 89.69570902474058 47.68759616730138 H 0.0 **** 0.06
6939 H 23.77409365049563 89.55268021659847 49.04669370806819 H 0.0 **** 0.06
6940 H 24.777504393589595 91.01361931066879 48.877166002084515 H 0.0 **** 0.06
6941 C 5.456002447350812 15.840949410391573 0.9514370859679389 C 0.0 **** -0.24
6942 H 5.497327122477856 15.562759773422698 -0.101167364163814 H 0.0 **** 0.06
6943 H 6.143977131648171 15.214032742656102 1.5202286248714358 H 0.0 **** 0.06
6944 H 4.441611847863896 15.698617127680421 1.3254460175767235 H 0.0 **** 0.06
6945 H 5.741124957222212 16.886948441808897 1.0629519087549397 H 0.0 **** 0.06
6946 C 43.59895624077413 40.30596787163631 53.21246035997251 C 0.0 **** -0.24
6947 H 44.49742185100584 39.69462173698747 53.296441529830076 H 0.0 **** 0.06
6948 H 43.57467585182971 40.78373620696641 52.23362727628199 H 0.0 **** 0.06
6949 H 43.60584211583824 41.069792604265615 53.98994588661185 H 0.0 **** 0.06
6950 H 42.718094747380064 39.6739172357656 53.33147084692524 H 0.0 **** 0.06
6951 C 90.10546277410663 40.4593912722105 40.022342024004075 C 0.0 **** -0.24
6952 H 90.61022954741316 39.60149151865143 40.46820970716388 H 0.0 **** 0.06
6953 H 89.4063235843297 40.11306804026542 39.26159438760027 H 0.0 **** 0.06
6954 H 90.84476933217854 41.117644658672006 39.56556887963845 H 0.0 **** 0.06
6955 H 89.56265323964931 41.002947225326885 40.79590853530519 H 0.0 **** 0.06
6956 C 56.541515463186286 6.8555394267004885 97.95301161319463 C 0.0 **** -0.24
6957 H 55.67098320550861 6.772698430352989 97.3016012972939 H 0.0 **** 0.06
6958 H 56.28151413293266 7.445659732850544 98.83261823229634 H 0.0 **** 0.06
6959 H 57.352991279242346 7.344881893452083 97.41420984201966 H 0.0 **** 0.06
6960 H 56.858997571060826 5.860695718091478 98.26302034196144 H 0.0 **** 0.06
6961 C 103.93070912264878 4.242832543251382 63.32880455429779 C 0.0 **** -0.24
6962 H 102.97654366090785 3.750118467948468 63.14371413118266 H 0.0 **** 0.06
6963 H 104.0752978374318 4.362131144218125 64.40317013948368 H 0.0 **** 0.06
6964 H 103.93361185476138 5.2219589010297085 62.84997626354078 H 0.0 **** 0.06
6965 H 104.73800897336315 3.635872993061838 62.918579661056924 H 0.0 **** 0.06
6966 C 58.4508973355663 71.20438419993246 81.57472387064269 C 0.0 **** -0.24
6967 H 58.759128141631045 70.19265846907098 81.31190609958509 H 0.0 **** 0.06
6968 H 58.869465887422514 71.47129789549416 82.54546012429935 H 0.0 **** 0.06
6969 H 57.36259593419372 71.25127988185812 81.6215883966008 H 0.0 **** 0.06
6970 H 58.81131176759869 71.90201508519664 80.81908311923016 H 0.0 **** 0.06
6971 C 55.33378321913534 46.465850050855124 64.98046986430643 C 0.0 **** -0.24
6972 H 55.33460139335125 47.2027635821716 64.17690891171989 H 0.0 **** 0.06
6973 H 54.306979759043315 46.25334905426348 65.2779364387101 H 0.0 **** 0.06
6974 H 55.88587691464079 46.859697954664966 65.83389108398481 H 0.0 **** 0.06
6975 H 55.80837998854287 45.5479325863692 64.63196607558405 H 0.0 **** 0.06
6976 C 11.666731532066507 99.4340808522957 19.5237682937078 C 0.0 **** -0.24
6977 H 12.619766084350402 99.80607367829893 19.899837260868367 H 0.0 **** 0.06
6978 H 11.68067934038487 98.34401147472065 19.515729415873313 H 0.0 **** 0.06
6979 H 11.506515945397268 99.80355044383299 18.511234572466208 H 0.0 **** 0.06
6980 H 10.861042361556045 99.78214917944626 20.170155785782512 H 0.0 **** 0.06
6981 C 86.67554243527249 38.610629817426 107.19344687950272 C 0.0 **** -0.24
6982 H 86.79552532525469 37.5406726463864 107.02219217930084 H 0.0 **** 0.06
6983 H 87.50364931586321 39.14752646024158 106.72967383610083 H 0.0 **** 0.06
6984 H 86.67020291030926 38.808067606910534 108.26563819961751 H 0.0 **** 0.06
6985 H 85.7348074984466 38.94636184172654 106.75724604428177 H 0.0 **** 0.06
6986 C 91.59894110366488 69.05886685831388 48.06996033085966 C 0.0 **** -0.24
6987 H 90.66139712191273 68.62389552452237 48.41550856457934 H 0.0 **** 0.06
6988 H 91.39747236394834 70.01012932800893 47.57741749052144 H 0.0 **** 0.06
6989 H 92.07681556735392 68.37795055439565 47.364579258567005 H 0.0 **** 0.06
6990 H 92.25969501458434 69.22313746719291 48.92148358849363 H 0.0 **** 0.06
6991 C 93.53463932796782 85.63525400486185 53.55138744528901 C 0.0 **** -0.24
6992 H 94.34915015902192 85.15974819615604 54.09872534729419 H 0.0 **** 0.06
6993 H 93.47669794446688 85.21264001172835 52.54774424961985 H 0.0 **** 0.06
6994 H 93.71984668265205 86.70676898854612 53.484790178458724 H 0.0 **** 0.06
6995 H 92.59503733975126 85.46011448761084 54.074767427772144 H 0.0 **** 0.06
6996 C 0.46171310894477813 17.77278899610309 25.817822073569914 C 0.0 **** -0.24
6997 H 0.26232342856752044 18.384362896646735 24.937428665569456 H 0.0 **** 0.06
6998 H 0.6562553220631111 16.74562926696808 25.509387957339356 H 0.0 **** 0.06
6999 H -0.40348000658439886 17.797110886605566 26.47944631725241 H 0.0 **** 0.06
7000 H 1.3321803510930703 18.166450982228838 26.342184910220624 H 0.0 **** 0.06
7001 C 55.574544045509526 4.4456025646709065 84.16292369720549 C 0.0 **** -0.24
7002 H 54.99039600789149 5.358127131712251 84.04564048981408 H 0.0 **** 0.06
7003 H 55.34191845402296 3.986339217810354 85.12476776982919 H 0.0 **** 0.06
7004 H 56.636472022030546 4.685385063125267 84.12234483778926 H 0.0 **** 0.06
7005 H 55.32794931014587 3.7514129840360795 83.35972432140028 H 0.0 **** 0.06
7006 C 53.77317613793025 96.0058699255139 30.98544668872495 C 0.0 **** -0.24
7007 H 53.93092499577685 96.02620752122641 32.062671332946934 H 0.0 **** 0.06
7008 H 52.75737563936329 96.33227897570472 30.75956852868552 H 0.0 **** 0.06
7009 H 53.91918839235518 94.99073070686273 30.614992599096553 H 0.0 **** 0.06
7010 H 54.485807932771024 96.67433424303607 30.50086042100918 H 0.0 **** 0.06
7011 C 34.56623715186995 61.27847582195756 91.98654719647396 C 0.0 **** -0.24
7012 H 33.60184192707201 60.84573419058813 92.25418495321884 H 0.0 **** 0.06
7013 H 34.55370254537745 61.56813009331486 90.93521482868863 H 0.0 **** 0.06
7014 H 35.352953870568086 60.54308512342814 92.15198799404266 H 0.0 **** 0.06
7015 H 34.753444380187744 62.15678033152784 92.60383400026723 H 0.0 **** 0.06
7016 C 100.91817580472733 111.53541705634183 20.34996244834747 C 0.0 **** -0.24
7017 H 101.1607316124342 112.54496291407405 20.681641851878595 H 0.0 **** 0.06
7018 H 99.84624733986459 111.36716174533649 20.453542872953705 H 0.0 **** 0.06
7019 H 101.46132902731136 110.81294675078489 20.960062183116406 H 0.0 **** 0.06
7020 H 101.2064141426138 111.41756131078239 19.305599940085216 H 0.0 **** 0.06
7021 C 9.490455135326258 14.43922733663176 20.43945076388607 C 0.0 **** -0.24
7022 H 9.716519785052597 15.48308863632434 20.65672189099854 H 0.0 **** 0.06
7023 H 8.417438488972962 14.32442728736524 20.28265576003514 H 0.0 **** 0.06
7024 H 9.80400756181703 13.817513712848637 21.27837594883698 H 0.0 **** 0.06
7025 H 10.024093930998077 14.131310469743738 19.539262821444595 H 0.0 **** 0.06
7026 C 26.475944728704548 23.056137360105595 36.75427423282889 C 0.0 **** -0.24
7027 H 26.23812730763217 22.144032898812753 36.20697019327858 H 0.0 **** 0.06
7028 H 27.188071945109357 22.82764742916845 37.54799183872092 H 0.0 **** 0.06
7029 H 25.56530358474143 23.46680172982417 37.18985298106304 H 0.0 **** 0.06
7030 H 26.913587635745728 23.78466231314826 36.07113916808666 H 0.0 **** 0.06
7031 C 36.423756415705355 68.99959835365291 100.49536491346362 C 0.0 **** -0.24
7032 H 37.223497642274324 69.71024398190522 100.28903968821862 H 0.0 **** 0.06
7033 H 35.556595131066345 69.2395897000126 99.87931142097412 H 0.0 **** 0.06
7034 H 36.14975081959119 69.0577916141946 101.54848686035925 H 0.0 **** 0.06
7035 H 36.76584492438815 67.99136842196367 100.2641741171139 H 0.0 **** 0.06
7036 C 10.482009156115904 4.713665363980519 12.46660226999407 C 0.0 **** -0.24
7037 H 9.770264679794352 5.3963508175004 12.93159883420465 H 0.0 **** 0.06
7038 H 10.77262667023831 3.9476584550198925 13.185824272206347 H 0.0 **** 0.06
7039 H 11.364788463234234 5.269740751578485 12.150755380012185 H 0.0 **** 0.06
7040 H 10.020273693628539 4.2421514227003065 11.600089571152182 H 0.0 **** 0.06
7041 C 36.48214561217506 43.18477882943159 82.37349460098199 C 0.0 **** -0.24
7042 H 37.06342981808061 42.94591330394866 81.48264537222505 H 0.0 **** 0.06
7043 H 35.43329222586863 42.943641833345566 82.1979327392244 H 0.0 **** 0.06
7044 H 36.57880330201684 44.24760671515662 82.59565350187901 H 0.0 **** 0.06
7045 H 36.85233879836177 42.60246534445827 83.21664128981772 H 0.0 **** 0.06
7046 C 93.95260795297989 106.55765412299615 29.883420850386045 C 0.0 **** -0.24
7047 H 94.94232156747483 106.23400595632461 29.560490143494548 H 0.0 **** 0.06
7048 H 93.19815931533947 106.12877274008656 29.22347734239864 H 0.0 **** 0.06
7049 H 93.89504658463102 107.64489468219841 29.844421128729238 H 0.0 **** 0.06
7050 H 93.77590213680884 106.2207111793141 30.905142402057578 H 0.0 **** 0.06
7051 C 22.024900407208463 44.89689054435276 99.59037236820856 C 0.0 **** -0.24
7052 H 22.21995174008397 44.287487919576165 100.47314065142376 H 0.0 **** 0.06
7053 H 22.92639306062189 44.948378240885745 98.97904883949434 H 0.0 **** 0.06
7054 H 21.738207984233142 45.90184596512951 99.90031986671985 H 0.0 **** 0.06
7055 H 21.217200515417645 44.450405024731 99.01144241872888 H 0.0 **** 0.06
7056 C 32.95798715960859 99.12437470475186 69.32565530543118 C 0.0 **** -0.24
7057 H 34.02095208481782 99.00027210074197 69.11971968774833 H 0.0 **** 0.06
7058 H 32.50904581159324 98.14842252127951 69.51182840962483 H 0.0 **** 0.06
7059 H 32.47391446077714 99.59008230436311 68.46665676088259 H 0.0 **** 0.06
7060 H 32.829606287339345 99.75725479712474 70.20324033115281 H 0.0 **** 0.06
7061 C 74.01873735349335 73.55701330154704 53.290428073698905 C 0.0 **** -0.24
7062 H 73.1847012227255 73.769341461512 52.62017962829904 H 0.0 **** 0.06
7063 H 74.89688585447715 73.29036964241823 52.70263241292358 H 0.0 **** 0.06
7064 H 73.7540104199523 72.7277264369327 53.94629721349324 H 0.0 **** 0.06
7065 H 74.23655838524456 74.4407372458619 53.89011663833185 H 0.0 **** 0.06
7066 C 75.09485847240197 97.60363528284003 50.16954359280777 C 0.0 **** -0.24
7067 H 74.78348664785088 96.91814423842456 49.3821237967122 H 0.0 **** 0.06
7068 H 74.86109997644289 98.62599199370638 49.8746689795327 H 0.0 **** 0.06
7069 H 76.168964057605 97.5072428624602 50.329475170324436 H 0.0 **** 0.06
7070 H 74.56681917142359 97.36093654114407 51.0923205278978 H 0.0 **** 0.06
7071 C 9.994347288718032 41.894984646224344 53.50502883517959 C 0.0 **** -0.24
7072 H 9.706332908359627 40.86395173652579 53.71418986838853 H 0.0 **** 0.06
7073 H 9.549854336690274 42.21224563733486 52.56246170914744 H 0.0 **** 0.06
7074 H 11.080674516951802 41.96156889799451 53.43685155220271 H 0.0 **** 0.06
7075 H 9.640840768793936 42.54033889885912 54.30985892964566 H 0.0 **** 0.06
7076 C 17.83814654933218 93.26570956149047 24.703484378056658 C 0.0 **** -0.24
7077 H 18.24401925256086 92.73636860824848 23.84113066799347 H 0.0 **** 0.06
7078 H 17.147985233651582 92.6126593044543 25.238726544461258 H 0.0 **** 0.06
7079 H 17.307846764437386 94.15602670207085 24.36604268382908 H 0.0 **** 0.06
7080 H 18.651792061706544 93.55737786070301 25.367064768735247 H 0.0 **** 0.06
7081 C 86.46234953853903 7.837472515181929 100.45542847650682 C 0.0 **** -0.24
7082 H 87.23105435787332 7.763716929870782 101.22472647318642 H 0.0 **** 0.06
7083 H 85.52012881184825 8.142842426033098 100.91239434884059 H 0.0 **** 0.06
7084 H 86.33489034278657 6.8684034682699036 99.9738813076271 H 0.0 **** 0.06
7085 H 86.76109875596705 8.576160542703192 99.71194662157285 H 0.0 **** 0.06
7086 C 79.30470973791486 62.936524208811356 9.742040136258993 C 0.0 **** -0.24
7087 H 78.58261218658308 63.409319844348595 9.07734717863434 H 0.0 **** 0.06
7088 H 79.28591752715957 63.432946872103464 10.712356988263195 H 0.0 **** 0.06
7089 H 80.30308935386907 63.01849348886868 9.311436357203888 H 0.0 **** 0.06
7090 H 79.04922202968072 61.88401158720746 9.867505834687336 H 0.0 **** 0.06
7091 C 2.1036477572160663 57.24320145979459 87.60175112442332 C 0.0 **** -0.24
7092 H 1.4799943473002344 56.43417641525093 87.22109996399897 H 0.0 **** 0.06
7093 H 3.1321813807365544 57.096189085046205 87.26957732226018 H 0.0 **** 0.06
7094 H 2.070314926427571 57.24514996357851 88.69114797771542 H 0.0 **** 0.06
7095 H 1.7326524689257212 58.19566518709985 87.22494658568098 H 0.0 **** 0.06
7096 C 70.37817392389417 36.46531380933402 94.29720636658743 C 0.0 **** -0.24
7097 H 69.95468248932451 37.17605253383485 95.00609196967599 H 0.0 **** 0.06
7098 H 70.71183858048056 36.99678816339062 93.4061843265774 H 0.0 **** 0.06
7099 H 69.61966300082406 35.73238692648829 94.02067824154494 H 0.0 **** 0.06
7100 H 71.22560800991707 35.95577361758339 94.75692879401385 H 0.0 **** 0.06
7101 C 44.83881482381519 29.072617295635332 27.78248977371026 C 0.0 **** -0.24
7102 H 45.39914619135717 29.949664141920053 28.10858034077998 H 0.0 **** 0.06
7103 H 45.16647719909423 28.201128873600148 28.350136444702116 H 0.0 **** 0.06
7104 H 45.015727948271525 28.903803753175247 26.720548583870666 H 0.0 **** 0.06
7105 H 43.775051293220066 29.237684708102783 27.951880616847554 H 0.0 **** 0.06
7106 C 36.38093667983736 30.91846349468763 51.47955990411677 C 0.0 **** -0.24
7107 H 37.25145172070894 30.504225161407078 51.9904676137997 H 0.0 **** 0.06
7108 H 36.70971234289083 31.514906572672388 50.62864298914967 H 0.0 **** 0.06
7109 H 35.82059439550088 31.547659889723917 52.17080066311575 H 0.0 **** 0.06
7110 H 35.74452917399895 30.106194196767575 51.129666471922405 H 0.0 **** 0.06
7111 C 22.003296667593958 66.47537695816965 106.32333136061385 C 0.0 **** -0.24
7112 H 20.91853327926728 66.37062086931422 106.31088435178285 H 0.0 **** 0.06
7113 H 22.272616294347443 67.39535791603083 106.8428719328918 H 0.0 **** 0.06
7114 H 22.376140826588653 66.51200474298065 105.29993358593993 H 0.0 **** 0.06
7115 H 22.44383642770171 65.6230139620323 106.84034047135755 H 0.0 **** 0.06
7116 C 91.28856759710925 5.309296179443663 13.952370435906118 C 0.0 **** -0.24
7117 H 91.60495953029184 5.733468153430408 12.998914234691256 H 0.0 **** 0.06
7118 H 92.15018792844864 4.87928577625496 14.46253003522935 H 0.0 **** 0.06
7119 H 90.54648538748154 4.531008146422778 13.773988460298426 H 0.0 **** 0.06
7120 H 90.8521341566317 6.092624022489645 14.571201326471055 H 0.0 **** 0.06
7121 C 102.64468460703077 39.4716468376067 9.370813585618976 C 0.0 **** -0.24
7122 H 101.89561257580854 39.10787652248689 8.667652418754983 H 0.0 **** 0.06
7123 H 102.81350493822256 38.72057029170867 10.142409399843132 H 0.0 **** 0.06
7124 H 102.29197190604458 40.39462565069741 9.831631642853779 H 0.0 **** 0.06
7125 H 103.57698990242329 39.66478961801917 8.840590928944152 H 0.0 **** 0.06
7126 C 60.60711828005881 82.46508616747212 76.83995401163159 C 0.0 **** -0.24
7127 H 60.16050833710625 81.52615894460865 77.16942131394492 H 0.0 **** 0.06
7128 H 61.677476610687165 82.45041061104362 77.04907633841896 H 0.0 **** 0.06
7129 H 60.142884575546844 83.29422815789252 77.37380418759577 H 0.0 **** 0.06
7130 H 60.447336132795925 82.58625034274905 75.76926394823201 H 0.0 **** 0.06
7131 C 4.939704591937925 1.5379905899393407 81.67265068015061 C 0.0 **** -0.24
7132 H 6.01430123659452 1.3816182713371177 81.75827807340588 H 0.0 **** 0.06
7133 H 4.448241881280637 0.5862941189810158 81.46777099526903 H 0.0 **** 0.06
7134 H 4.73825292911863 2.234975357682913 80.85865872745723 H 0.0 **** 0.06
7135 H 4.557801958355185 1.951065565948852 82.6068888185454 H 0.0 **** 0.06
7136 C 63.150769722347995 74.10733150701606 4.970453978033888 C 0.0 **** -0.24
7137 H 64.08157235245065 73.60770860319315 5.237996084452817 H 0.0 **** 0.06
7138 H 63.35549338180305 75.14965582892034 4.72558537483161 H 0.0 **** 0.06
7139 H 62.45877880165853 74.06064440002649 5.8124993337654445 H 0.0 **** 0.06
7140 H 62.70616144861187 73.61145986280974 4.107932586183168 H 0.0 **** 0.06
7141 C 90.38204718940159 90.4771063169614 79.6571257495986 C 0.0 **** -0.24
7142 H 90.84729047244466 91.4558394866132 79.78293742948944 H 0.0 **** 0.06
7143 H 89.89353506102145 90.1862512091758 80.58699272102123 H 0.0 **** 0.06
7144 H 91.14509889487371 89.74286486158678 79.40075314576808 H 0.0 **** 0.06
7145 H 89.64259142704773 90.52769860213385 78.85771721620816 H 0.0 **** 0.06
7146 C 10.621188325666331 87.6286957570344 68.20534982506265 C 0.0 **** -0.24
7147 H 11.576109743684114 88.0849780742198 68.46481828529909 H 0.0 **** 0.06
7148 H 10.725667278892399 86.54424377390654 68.20325953463433 H 0.0 **** 0.06
7149 H 10.315137921521934 87.96690538947973 67.21532821438137 H 0.0 **** 0.06
7150 H 9.868443401685134 87.92056312650942 68.93699512971733 H 0.0 **** 0.06
7151 C 51.31200288699346 28.74695347892623 20.046082457521294 C 0.0 **** -0.24
7152 H 50.69191376329312 27.877712352474504 20.26725610839813 H 0.0 **** 0.06
7153 H 50.94377387374362 29.606516520476816 20.60577088677624 H 0.0 **** 0.06
7154 H 51.267793621093325 28.962181484336583 18.97848195493168 H 0.0 **** 0.06
7155 H 52.34240488431969 28.54029987855992 20.33333554732158 H 0.0 **** 0.06
7156 C 50.175558557537926 57.88865479178054 84.43965304480022 C 0.0 **** -0.24
7157 H 50.277286590741824 57.84444561816048 83.35477221626553 H 0.0 **** 0.06
7158 H 50.969458665234896 58.51053861828552 84.85387586298592 H 0.0 **** 0.06
7159 H 50.24813752282995 56.883470393396976 84.85266261263263 H 0.0 **** 0.06
7160 H 49.206681470210754 58.318256764765465 84.69502678367382 H 0.0 **** 0.06
7161 C 70.19633148825042 2.423614798568167 92.60153247059654 C 0.0 **** -0.24
7162 H 70.13454403690355 2.5637250461896883 93.68039148751862 H 0.0 **** 0.06
7163 H 69.19056094483963 2.3240711531802276 92.19114586219362 H 0.0 **** 0.06
7164 H 70.76887205835459 1.5218654945161916 92.3842702303345 H 0.0 **** 0.06
7165 H 70.68940992982621 3.2848056786989446 92.15081271505716 H 0.0 **** 0.06
7166 C 54.834947538571924 88.72955231137706 82.20099872414741 C 0.0 **** -0.24
7167 H 54.025398461422355 89.11229562943475 82.8221204581516 H 0.0 **** 0.06
7168 H 55.654750304587566 88.39625814202174 82.83878075174277 H 0.0 **** 0.06
7169 H 55.18856561785515 89.5190455013414 81.53741136725756 H 0.0 **** 0.06
7170 H 54.471706214761724 87.89138336186232 81.60709815111053 H 0.0 **** 0.06
7171 C 90.59080235775468 96.65468751657016 36.14221113920445 C 0.0 **** -0.24
7172 H 91.01765857253051 95.68037659256919 36.37849770370104 H 0.0 **** 0.06
7173 H 91.38805365664868 97.33910564228523 35.85072591437108 H 0.0 **** 0.06
7174 H 90.07684447090972 97.04792700156975 37.01851662715609 H 0.0 **** 0.06
7175 H 89.88194800949378 96.55145524403662 35.32054818544839 H 0.0 **** 0.06
7176 C 18.068717341363637 94.83253542662891 68.89650711633203 C 0.0 **** -0.24
7177 H 18.725143069943215 95.38433751624962 68.22495070910543 H 0.0 **** 0.06
7178 H 18.557061893193122 94.71216281530081 69.86397984062143 H 0.0 **** 0.06
7179 H 17.85645356039673 93.85129725781115 68.47278067768337 H 0.0 **** 0.06
7180 H 17.135379538583905 95.38190840704004 69.02634686228629 H 0.0 **** 0.06
7181 C 107.55045406842859 67.17844875913823 28.735338530410786 C 0.0 **** -0.24
7182 H 106.4779371921256 66.99906249240792 28.659407543929632 H 0.0 **** 0.06
7183 H 107.77884987592373 68.17591740295077 28.35953530703543 H 0.0 **** 0.06
7184 H 108.0860929419921 66.43587415870053 28.145190019892766 H 0.0 **** 0.06
7185 H 107.85700267271821 67.10459059492015 29.779352125916034 H 0.0 **** 0.06
7186 C 112.1179587189024 45.58353628914483 28.458299191585 C 0.0 **** -0.24
7187 H 112.98466395613241 45.624154674930935 29.11743386819125 H 0.0 **** 0.06
7188 H 112.44661223743512 45.3831131393988 27.43866798371114 H 0.0 **** 0.06
7189 H 111.59198453062137 46.537080062708185 28.490466695697563 H 0.0 **** 0.06
7190 H 111.44891331568002 44.78862912378213 28.78734967086931 H 0.0 **** 0.06
7191 C 92.42047132216285 91.32973672037787 83.44266709651654 C 0.0 **** -0.24
7192 H 93.1452391711685 91.77293210197803 84.1252729736209 H 0.0 **** 0.06
7193 H 91.51145753711177 91.0801099632551 83.99002238966287 H 0.0 **** 0.06
7194 H 92.84126873579663 90.42434872175079 83.00394672459262 H 0.0 **** 0.06
7195 H 92.18500391570595 92.04159175291755 82.65051875661578 H 0.0 **** 0.06
7196 C 74.06680104210363 67.42936663153606 96.85739317401695 C 0.0 **** -0.24
7197 H 73.91244373638594 67.52699821637441 97.93193274021633 H 0.0 **** 0.06
7198 H 74.263166729522 68.41265665143649 96.42786116570733 H 0.0 **** 0.06
7199 H 73.17303275690892 67.00474159111855 96.39933066171938 H 0.0 **** 0.06
7200 H 74.91734153493363 66.7745607520529 96.66990857005027 H 0.0 **** 0.06
7201 C 97.99338227525911 48.01323674616134 97.00844883153815 C 0.0 **** -0.24
7202 H 98.22604372786967 47.372091075799574 96.15796115278783 H 0.0 **** 0.06
7203 H 97.62382103186482 47.403628004008524 97.83294264722235 H 0.0 **** 0.06
7204 H 97.22928246410069 48.736115557944345 96.72023334035637 H 0.0 **** 0.06
7205 H 98.89420143582055 48.54239037870488 97.3211303433562 H 0.0 **** 0.06
7206 C 34.926450109811185 18.869472613093592 74.4376294326729 C 0.0 **** -0.24
7207 H 35.772287225768 19.305046677375287 74.96977528788545 H 0.0 **** 0.06
7208 H 34.02324655788499 18.983442677957214 75.03737152547671 H 0.0 **** 0.06
7209 H 35.1147721426441 17.810939205320324 74.26133659145606 H 0.0 **** 0.06
7210 H 34.796151956089375 19.379528503208576 73.48323026844028 H 0.0 **** 0.06
7211 C 77.53126518943148 59.0509889092782 21.75953549881865 C 0.0 **** -0.24
7212 H 77.74309354886174 58.07190586492277 21.33086840347505 H 0.0 **** 0.06
7213 H 76.45330326988196 59.213593510414455 21.77773636277618 H 0.0 **** 0.06
7214 H 78.00588161453595 59.82353942968183 21.154269977438958 H 0.0 **** 0.06
7215 H 77.92217391185147 59.09448227718923 22.77646771382763 H 0.0 **** 0.06
7216 C 14.543015247538449 111.76150110415358 75.91307075739485 C 0.0 **** -0.24
7217 H 14.131675588735504 112.30816802496204 75.06462491863314 H 0.0 **** 0.06
7218 H 13.928811437379181 110.88257079582755 76.11174548329896 H 0.0 **** 0.06
7219 H 14.550252401145002 112.40601633002254 76.7918819530363 H 0.0 **** 0.06
7220 H 15.561645972348117 111.4483400440659 75.68376965533167 H 0.0 **** 0.06
7221 C 7.6997776286289366 83.43026784761523 8.328498166507146 C 0.0 **** -0.24
7222 H 8.373164197777669 82.57312659016776 8.286690460555988 H 0.0 **** 0.06
7223 H 8.27802556468265 84.33798911110563 8.500822910898492 H 0.0 **** 0.06
7224 H 6.9876670308113376 83.29310088491036 9.141535093642688 H 0.0 **** 0.06
7225 H 7.162051203779811 83.51525734524097 7.38447780892605 H 0.0 **** 0.06
7226 C 13.398483301076254 67.87620715782958 88.97606893489584 C 0.0 **** -0.24
7227 H 13.686604651521172 66.95233735075001 89.47923307176424 H 0.0 **** 0.06
7228 H 14.239980253102136 68.57002260878065 88.9807024832759 H 0.0 **** 0.06
7229 H 12.553403580870516 68.32492716710885 89.49847493345868 H 0.0 **** 0.06
7230 H 13.115074428596255 67.65509652020404 87.94752246982517 H 0.0 **** 0.06
7231 C 38.68343599265532 92.45432528660734 103.19452455534264 C 0.0 **** -0.24
7232 H 38.190063233547136 91.69224333111828 103.79732449914059 H 0.0 **** 0.06
7233 H 38.8164024593905 93.35842483602511 103.790535828831 H 0.0 **** 0.06
7234 H 38.069324189816456 92.68135489626178 102.32340423817755 H 0.0 **** 0.06
7235 H 39.655934684788065 92.08669108257396 102.868221422228 H 0.0 **** 0.06
7236 C 41.026816140025474 101.69489550258976 110.0641400613456 C 0.0 **** -0.24
7237 H 40.37228746008907 100.91188248573724 109.6825772803547 H 0.0 **** 0.06
7238 H 41.15568251738921 101.56865047189038 111.13912752219102 H 0.0 **** 0.06
7239 H 40.58157110768988 102.67012710512083 109.86401848800928 H 0.0 **** 0.06
7240 H 41.99676632225125 101.63010715675367 109.57166115638037 H 0.0 **** 0.06
7241 C 37.3004123327115 70.99646712419391 11.53612709410038 C 0.0 **** -0.24
7242 H 36.952050373187475 70.35837098078642 10.722885587717315 H 0.0 **** 0.06
7243 H 38.32737638707577 70.73483645149548 11.788225348740298 H 0.0 **** 0.06
7244 H 36.66264009296055 70.8523176552936 12.407996274099673 H 0.0 **** 0.06
7245 H 37.25638662997747 72.03954313270913 11.22254683700561 H 0.0 **** 0.06
7246 C 62.356292625344345 29.206423523270814 105.50716148896842 C 0.0 **** -0.24
7247 H 61.4304593370479 29.779972198302914 105.466197939474 H 0.0 **** 0.06
7248 H 62.20938997980341 28.245242739761636 105.0139865341491 H 0.0 **** 0.06
7249 H 62.63642888281425 29.042030417240767 106.54758782810553 H 0.0 **** 0.06
7250 H 63.1483601298496 29.757340942545284 105.00017387112237 H 0.0 **** 0.06
7251 C 60.969604293364284 44.10068070445922 59.28084561521481 C 0.0 **** -0.24
7252 H 60.585884303076455 43.08922877511995 59.4192704291445 H 0.0 **** 0.06
7253 H 61.981817644455674 44.16249666797313 59.6805133645619 H 0.0 **** 0.06
7254 H 60.32716662090189 44.80814612586451 59.80568362589319 H 0.0 **** 0.06
7255 H 60.98293631300854 44.34059546645355 58.21718231724723 H 0.0 **** 0.06
7256 C 19.019762209776843 73.60245969373295 81.53342234108453 C 0.0 **** -0.24
7257 H 18.288627063763954 73.30347212879619 80.78238691014352 H 0.0 **** 0.06
7258 H 19.567426787220313 72.7246036616217 81.87669731014495 H 0.0 **** 0.06
7259 H 18.50618117966627 74.06273021946402 82.37775994066234 H 0.0 **** 0.06
7260 H 19.716341128755573 74.31773304621055 81.09788802408613 H 0.0 **** 0.06
7261 C 84.03456456814246 35.590079957561386 45.99654008093228 C 0.0 **** -0.24
7262 H 83.44226480434449 34.86957393566078 46.560662812654016 H 0.0 **** 0.06
7263 H 85.04093078066566 35.637340880102585 46.411663915017925 H 0.0 **** 0.06
7264 H 83.5684703109346 36.572888605560905 46.05929864522571 H 0.0 **** 0.06
7265 H 84.08580489410548 35.27816026525613 44.95212058984103 H 0.0 **** 0.06
7266 C 3.8496618660235526 58.32355357601805 59.06737679869102 C 0.0 **** -0.24
7267 H 4.086266411440874 58.90070821156555 59.961845504478894 H 0.0 **** 0.06
7268 H 4.282082020599319 58.81261578332842 58.19432045820077 H 0.0 **** 0.06
7269 H 2.76686243627762 58.2625488228309 58.95057225202853 H 0.0 **** 0.06
7270 H 4.261691136661909 57.31972096627872 59.16379404002513 H 0.0 **** 0.06
7271 C 62.32087123006721 60.72103469389279 11.844162276426857 C 0.0 **** -0.24
7272 H 61.23273378687941 60.78874142103672 11.84619292547535 H 0.0 **** 0.06
7273 H 62.706283134670855 61.09135141361659 10.894572606838238 H 0.0 **** 0.06
7274 H 62.61985634042799 59.68058258338027 11.977157709866674 H 0.0 **** 0.06
7275 H 62.723851936807534 61.32201864567645 12.65930534698353 H 0.0 **** 0.06
7276 C 81.92578661320974 102.21102938795323 40.2477979641872 C 0.0 **** -0.24
7277 H 82.07027939399629 101.44835905905168 39.48311950325575 H 0.0 **** 0.06
7278 H 81.12281946590116 101.90596115500699 40.918489023908535 H 0.0 **** 0.06
7279 H 81.6638937844607 103.15699713025992 39.77317537634298 H 0.0 **** 0.06
7280 H 82.84802221308064 102.33402399721717 40.81651605774013 H 0.0 **** 0.06
7281 C 100.23388798000605 76.47426542129125 14.806759567572943 C 0.0 **** -0.24
7282 H 99.16102971209844 76.34059481522155 14.664419287369451 H 0.0 **** 0.06
7283 H 100.4094493059963 77.32056233652494 15.470296377010342 H 0.0 **** 0.06
7284 H 100.70632379319025 76.66346267795254 13.842609570385434 H 0.0 **** 0.06
7285 H 100.65663801793411 75.57140802856009 15.247373137772474 H 0.0 **** 0.06
7286 C 19.027727481027476 21.375739457966898 96.90475777415307 C 0.0 **** -0.24
7287 H 19.34888485091244 22.034888182692363 97.71085159789678 H 0.0 **** 0.06
7288 H 18.023851047371956 21.006405712240717 97.11511009318781 H 0.0 **** 0.06
7289 H 19.715548572026663 20.53321434188491 96.82784868303102 H 0.0 **** 0.06
7290 H 19.023179584489846 21.927186265386016 95.96417329349717 H 0.0 **** 0.06
7291 C 96.05860866659538 39.41305220167328 59.44597823139583 C 0.0 **** -0.24
7292 H 96.48228371639118 38.86008814106117 60.284662093885856 H 0.0 **** 0.06
7293 H 95.15694665600165 39.931775639526506 59.77200893276131 H 0.0 **** 0.06
7294 H 95.81037912017169 38.719760350781 58.6430293981299 H 0.0 **** 0.06
7295 H 96.78655915942971 40.140455954404615 59.08685395723347 H 0.0 **** 0.06
7296 C 92.46344712905861 72.63470622380143 100.4068643890248 C 0.0 **** -0.24
7297 H 91.99298962021402 73.57357195659935 100.11238461364027 H 0.0 **** 0.06
7298 H 92.0654344721492 72.31581986389116 101.36985076838494 H 0.0 **** 0.06
7299 H 93.54079232919133 72.77828812073153 100.48720073137306 H 0.0 **** 0.06
7300 H 92.25312722159688 71.87290199634165 99.65522396502806 H 0.0 **** 0.06
7301 C 15.156470871397786 8.724239494019287 49.82063115533751 C 0.0 **** -0.24
7302 H 14.32068977556412 8.951617280777782 50.48225845583909 H 0.0 **** 0.06
7303 H 14.802931585394717 8.680741722145854 48.79036307374383 H 0.0 **** 0.06
7304 H 15.587857972603501 7.762099318466426 50.09796106041853 H 0.0 **** 0.06
7305 H 15.914765816442497 9.502058761741978 49.912763535449045 H 0.0 **** 0.06
7306 C 3.585735435404912 48.80291113907319 36.553111714423665 C 0.0 **** -0.24
7307 H 3.990035276056254 47.79130272595458 36.54437225921339 H 0.0 **** 0.06
7308 H 3.7334583451056407 49.2439506553842 37.53984044245118 H 0.0 **** 0.06
7309 H 2.5205829575401566 48.771096597274465 36.324421072169685 H 0.0 **** 0.06
7310 H 4.100380895760365 49.40631046175122 35.80463208349306 H 0.0 **** 0.06
7311 C 79.68462124915004 74.6548637283372 40.590003367294415 C 0.0 **** -0.24
7312 H 79.1703361840901 73.80652112415746 41.04328713572993 H 0.0 **** 0.06
7313 H 79.03949611620266 75.53238066647216 40.62666322842802 H 0.0 **** 0.06
7314 H 79.9225615230761 74.42099486747185 39.55204614101143 H 0.0 **** 0.06
7315 H 80.60543294077681 74.8553881053131 41.13759553716188 H 0.0 **** 0.06
7316 C 105.45888092928891 72.44152105820629 23.837881376883388 C 0.0 **** -0.24
7317 H 106.30542984831374 72.33777605309331 23.158566769936385 H 0.0 **** 0.06
7318 H 105.80675194092368 72.35039744041259 24.86752195166426 H 0.0 **** 0.06
7319 H 104.72868187892351 71.65933690830198 23.629207666460616 H 0.0 **** 0.06
7320 H 104.99678669910355 73.41825578345478 23.695615532737918 H 0.0 **** 0.06
7321 C 67.63180242488235 30.70881983521923 50.531531727842186 C 0.0 **** -0.24
7322 H 66.5955791101731 30.911273277554642 50.25985312888219 H 0.0 **** 0.06
7323 H 68.26063160966544 31.53990233558443 50.21078700903314 H 0.0 **** 0.06
7324 H 67.96273193385284 29.792242751377188 50.04166380275988 H 0.0 **** 0.06
7325 H 67.70769362864371 30.590339822619654 51.611990588539 H 0.0 **** 0.06
7326 C 89.47635737527389 14.715634911664072 73.56218542972613 C 0.0 **** -0.24
7327 H 89.12192016533379 15.668677936855719 73.95272422625737 H 0.0 **** 0.06
7328 H 89.37908726677642 14.70897264435327 72.47640297065183 H 0.0 **** 0.06
7329 H 88.88235783578693 13.905466053517411 73.98610688986076 H 0.0 **** 0.06
7330 H 90.52294368229849 14.578390583782678 73.8339085995245 H 0.0 **** 0.06
7331 C 42.39360892631197 93.01524008078061 30.080457836318487 C 0.0 **** -0.24
7332 H 42.45640618615539 92.05167236957573 30.58779624012763 H 0.0 **** 0.06
7333 H 43.396904558670656 93.36346743378087 29.836835332940353 H 0.0 **** 0.06
7334 H 41.90647927152716 93.73822669447577 30.734416872397162 H 0.0 **** 0.06
7335 H 41.81383344839608 92.90497860667978 29.163490961092634 H 0.0 **** 0.06
7336 C 42.14757536416198 86.21014962653823 76.29564406181404 C 0.0 **** -0.24
7337 H 41.264906822335774 85.99340204067335 76.89764168694012 H 0.0 **** 0.06
7338 H 41.843024705012226 86.42746310368403 75.27165911948026 H 0.0 **** 0.06
7339 H 42.81306654034972 85.34764309960019 76.30347377966072 H 0.0 **** 0.06
7340 H 42.66691512497164 87.07404086868507 76.7119211242254 H 0.0 **** 0.06
7341 C 25.480116148987605 73.94677988024472 35.391928381656584 C 0.0 **** -0.24
7342 H 24.491851252413568 73.54103078030136 35.60747543543102 H 0.0 **** 0.06
7343 H 25.41898652429481 75.03349737888061 35.31867711726953 H 0.0 **** 0.06
7344 H 25.84253239111831 73.53912828240112 34.44829920453596 H 0.0 **** 0.06
7345 H 26.166427592109443 73.67461461411182 36.19374073804739 H 0.0 **** 0.06
7346 C 107.74365384916835 66.21944499725609 1.6793684426196904 C 0.0 **** -0.24
7347 H 107.21059842003088 67.02206908563744 1.170178060712317 H 0.0 **** 0.06
7348 H 108.06104134759029 66.56160026042429 2.665204854417013 H 0.0 **** 0.06
7349 H 108.61882439412345 65.93595497918938 1.093409055183713 H 0.0 **** 0.06
7350 H 107.0849839173197 65.35715999313567 1.7881202011403303 H 0.0 **** 0.06
7351 C 106.32689936082627 16.907185391662335 50.5597637294913 C 0.0 **** -0.24
7352 H 106.71252031946561 16.67677263538848 49.566891734446266 H 0.0 **** 0.06
7353 H 105.83643808183348 16.025490331954618 50.97290169026457 H 0.0 **** 0.06
7354 H 105.60852442912596 17.72462695123198 50.48929949510684 H 0.0 **** 0.06
7355 H 107.1510483803705 17.20251774166886 51.2091346463216 H 0.0 **** 0.06
7356 C 46.596117898829576 33.08419255278915 78.17249777535929 C 0.0 **** -0.24
7357 H 47.38510997957495 32.38941606739354 78.45815219751387 H 0.0 **** 0.06
7358 H 45.634515205059245 32.702353960700975 78.51458242071584 H 0.0 **** 0.06
7359 H 46.58043364450856 33.191276807549684 77.08792811384049 H 0.0 **** 0.06
7360 H 46.78490379055715 34.0560994051246 78.62966559137513 H 0.0 **** 0.06
7361 C 100.63087531903017 59.65162121185123 100.35393695560529 C 0.0 **** -0.24
7362 H 100.71560735987117 60.564693791297735 100.94341583613408 H 0.0 **** 0.06
7363 H 99.96199438730383 58.95428700298135 100.85878615622374 H 0.0 **** 0.06
7364 H 101.6157141167107 59.198061918180976 100.24364243355683 H 0.0 **** 0.06
7365 H 100.22930477499699 59.89119997697971 99.36953638652025 H 0.0 **** 0.06
7366 C 75.55647883400928 55.2776162094998 1.8788772966745455 C 0.0 **** -0.24
7367 H 75.73647158590498 54.62582105041261 1.0237450897739677 H 0.0 **** 0.06
7368 H 75.82460349925833 56.3010149565346 1.618430566040388 H 0.0 **** 0.06
7369 H 76.16331783363648 54.94551409067072 2.7216412258175637 H 0.0 **** 0.06
7370 H 74.50187458612268 55.235691080653105 2.1517391125612164 H 0.0 **** 0.06
7371 C 47.377849973926764 96.81139539454227 81.41102357319926 C 0.0 **** -0.24
7372 H 48.32971487241137 97.21279115913512 81.75888712257097 H 0.0 **** 0.06
7373 H 46.830092842144225 96.3933706883735 82.25580512979869 H 0.0 **** 0.06
7374 H 47.56122041559038 96.02978242121253 80.67405016363145 H 0.0 **** 0.06
7375 H 46.79245973868738 97.61001264093491 80.95657655423906 H 0.0 **** 0.06
7376 C 57.9476968384526 87.16560302085279 28.54350908787208 C 0.0 **** -0.24
7377 H 57.70782702248374 86.38956967151728 27.81613563255877 H 0.0 **** 0.06
7378 H 57.71717511505696 86.80695533385543 29.546662595759187 H 0.0 **** 0.06
7379 H 57.35771256987428 88.05728643067098 28.33020019911106 H 0.0 **** 0.06
7380 H 59.007805014913544 87.4084529770343 28.478225981554232 H 0.0 **** 0.06
7381 C 70.01099444675953 8.702131691528791 108.11175412852879 C 0.0 **** -0.24
7382 H 69.76897426551653 7.712069162934569 107.72713128296519 H 0.0 **** 0.06
7383 H 69.84264443050739 9.446233313496862 107.33349683441396 H 0.0 **** 0.06
7384 H 71.05772358952942 8.726304844617232 108.41770551057138 H 0.0 **** 0.06
7385 H 69.37628328016362 8.922804834709183 108.9701121550402 H 0.0 **** 0.06
7386 C 79.55962480957021 70.32736555284981 21.66824888307191 C 0.0 **** -0.24
7387 H 79.07443470877811 71.2928474992992 21.81155822285953 H 0.0 **** 0.06
7388 H 80.64219650642497 70.45992289072149 21.675358527926605 H 0.0 **** 0.06
7389 H 79.25028347486108 69.90333250910979 20.712968660548555 H 0.0 **** 0.06
7390 H 79.27188970206996 69.6534191016533 22.475324526059097 H 0.0 **** 0.06
7391 C 55.78100380896055 75.96438318788125 108.59080024517002 C 0.0 **** -0.24
7392 H 56.576452528046666 76.63295989373205 108.92162191059742 H 0.0 **** 0.06
7393 H 55.946456544381924 74.97031286804526 109.00656099194676 H 0.0 **** 0.06
7394 H 55.78372818014906 75.90934880485256 107.50195442797505 H 0.0 **** 0.06
7395 H 54.81956909426761 76.34739981286378 108.93314357117363 H 0.0 **** 0.06
7396 C 37.15967701196706 44.277635792566144 31.774129145004004 C 0.0 **** -0.24
7397 H 36.200752708430116 44.17621042749627 32.28146671973481 H 0.0 **** 0.06
7398 H 37.95066615196944 43.879408839307104 32.409335287115816 H 0.0 **** 0.06
7399 H 37.35286867297259 45.33095653931892 31.57058852528217 H 0.0 **** 0.06
7400 H 37.13398314255625 43.72468032123925 30.83457791041198 H 0.0 **** 0.06
7401 C 44.6599833818654 94.56104078674812 11.794472909475253 C 0.0 **** -0.24
7402 H 44.666371855889736 94.12283381613514 10.796708308215283 H 0.0 **** 0.06
7403 H 45.149061107304476 95.5359022188052 11.765651289223825 H 0.0 **** 0.06
7404 H 45.19400988752369 93.90579863442608 12.4819674550454 H 0.0 **** 0.06
7405 H 43.6296379414984 94.68072915535095 12.131549221555993 H 0.0 **** 0.06
7406 C 22.61617221723884 15.591825381348201 63.7927221880237 C 0.0 **** -0.24
7407 H 23.265285677558268 15.212026679669634 63.00288351625082 H 0.0 **** 0.06
7408 H 23.014859865083167 16.535208899432092 64.16675310634233 H 0.0 **** 0.06
7409 H 22.571351584605026 14.86706030104915 64.60551679251836 H 0.0 **** 0.06
7410 H 21.615020316528614 15.752561369949944 63.3933987916474 H 0.0 **** 0.06
7411 C 83.56817998161549 89.56517165425629 79.49079391343469 C 0.0 **** -0.24
7412 H 83.1432232988397 90.19228090982307 80.27456887613948 H 0.0 **** 0.06
7413 H 84.03094871931702 90.19517400984239 78.73086000652688 H 0.0 **** 0.06
7414 H 82.77866721454495 88.96738669306438 79.03672778427017 H 0.0 **** 0.06
7415 H 84.32057504441244 88.90466210266061 79.92247461305521 H 0.0 **** 0.06
7416 C 27.92648672939002 98.03802390618893 28.06139651286557 C 0.0 **** -0.24
7417 H 28.055426748189205 97.08075044219385 28.568401924070685 H 0.0 **** 0.06
7418 H 28.43912633841225 98.01189809129497 27.100482161293996 H 0.0 **** 0.06
7419 H 28.34778412493172 98.83341733147745 28.67680713748271 H 0.0 **** 0.06
7420 H 26.86436782793548 98.22417853125665 27.902540358439268 H 0.0 **** 0.06
7421 C 96.99134618290489 0.6086488274367241 39.861454982602204 C 0.0 **** -0.24
7422 H 97.60709512910591 1.1970881850684236 40.541731214682876 H 0.0 **** 0.06
7423 H 95.96111025057004 0.6017505078173997 40.217724180402506 H 0.0 **** 0.06
7424 H 97.36953711579488 -0.4137391815640399 39.82199783037062 H 0.0 **** 0.06
7425 H 97.02934305800096 1.0485517339420767 38.86483165029728 H 0.0 **** 0.06
7426 C 81.55535603340522 65.67304193577203 41.002182287854765 C 0.0 **** -0.24
7427 H 82.35738619906115 66.40691285531224 41.09012294271915 H 0.0 **** 0.06
7428 H 81.70642152330598 65.07737332153073 40.10194314864529 H 0.0 **** 0.06
7429 H 80.59697588074687 66.18954613984931 40.939889918754545 H 0.0 **** 0.06
7430 H 81.5605985199845 65.02200505598887 41.876043176988134 H 0.0 **** 0.06
7431 C 104.58947186856597 69.21614468908945 107.10375363904635 C 0.0 **** -0.24
7432 H 105.44187849287928 69.64258839897775 107.63367548702013 H 0.0 **** 0.06
7433 H 104.41262234070933 69.77950330481775 106.18770632223502 H 0.0 **** 0.06
7434 H 103.70465958954352 69.26746181850692 107.73915212687248 H 0.0 **** 0.06
7435 H 104.79975538870116 68.17513106101961 106.85729697106746 H 0.0 **** 0.06
7436 C 33.98361144068361 46.36610753774832 44.30337067277523 C 0.0 **** -0.24
7437 H 33.32150058527234 46.20299827925507 45.154033358058825 H 0.0 **** 0.06
7438 H 33.56260960940761 45.88676878425406 43.41986788396693 H 0.0 **** 0.06
7439 H 34.96294284064208 45.93770098584497 44.51843175426822 H 0.0 **** 0.06
7440 H 34.08658525688457 47.43591361818173 44.12364952031592 H 0.0 **** 0.06
7441 C 36.87713516928889 55.427109585083656 59.292055261818625 C 0.0 **** -0.24
7442 H 37.9317877818786 55.5322888851233 59.54704268635046 H 0.0 **** 0.06
7443 H 36.598639488152486 54.37426657735111 59.32573156803216 H 0.0 **** 0.06
7444 H 36.7047540412934 55.81766000425933 58.289283857621975 H 0.0 **** 0.06
7445 H 36.27340466535179 55.98647968326451 60.00813911051727 H 0.0 **** 0.06
7446 C 88.84059031894682 105.62621928875836 110.48984127616289 C 0.0 **** -0.24
7447 H 88.2013437884444 106.33133155062836 111.01943154989466 H 0.0 **** 0.06
7448 H 89.66877951328598 106.16367290219608 110.02653496771548 H 0.0 **** 0.06
7449 H 88.26048860376602 105.11796306065247 109.7190345257903 H 0.0 **** 0.06
7450 H 89.23277789397497 104.8911549805162 111.1931923975126 H 0.0 **** 0.06
7451 C 0.8678665245756747 30.69293851895327 54.65167699448725 C 0.0 **** -0.24
7452 H -0.17944407796619544 30.39141028528232 54.66963850175728 H 0.0 **** 0.06
7453 H 0.9336762279455115 31.78072504872378 54.65791499045365 H 0.0 **** 0.06
7454 H 1.3415296227870215 30.30490897005481 53.749976533275984 H 0.0 **** 0.06
7455 H 1.3756370126791637 30.29188254385531 55.5291259410352 H 0.0 **** 0.06
7456 C 81.39403087387146 69.56920734717335 93.71352753324706 C 0.0 **** -0.24
7457 H 81.71182079500721 70.07238836919231 94.62642828610527 H 0.0 **** 0.06
7458 H 80.30437620066351 69.56023325357054 93.66362110571981 H 0.0 **** 0.06
7459 H 81.76522103126214 68.54348490310639 93.71649844402742 H 0.0 **** 0.06
7460 H 81.7939369356516 70.09843862873424 92.8490428664827 H 0.0 **** 0.06
7461 C 14.120325388652361 84.18651740635701 80.60149661147017 C 0.0 **** -0.24
7462 H 14.35996147189715 85.13876688386472 81.07581815991898 H 0.0 **** 0.06
7463 H 14.878180939813532 83.44839108280749 80.86753230189584 H 0.0 **** 0.06
7464 H 14.102484764719435 84.31510739309485 79.5193026772836 H 0.0 **** 0.06
7465 H 13.143966257770245 83.84550750217105 80.9438464425177 H 0.0 **** 0.06
7466 C 31.13873271145161 56.040381914744586 55.888761437292715 C 0.0 **** -0.24
7467 H 30.47676458162833 56.440895536739816 55.12070515857923 H 0.0 **** 0.06
7468 H 30.66803429728901 55.176207149214406 56.35914367865354 H 0.0 **** 0.06
7469 H 31.325969556337157 56.80660451358301 56.64146172110043 H 0.0 **** 0.06
7470 H 32.081119491780015 55.73868134794287 55.433726049075744 H 0.0 **** 0.06
7471 C 21.984451551714216 107.39813034951749 38.7965182772773 C 0.0 **** -0.24
7472 H 22.047064254797448 108.07441595553443 37.9442631564836 H 0.0 **** 0.06
7473 H 22.504057887709592 106.46907723539044 38.56261671345396 H 0.0 **** 0.06
7474 H 20.937524501488582 107.18494081900825 39.01403702591972 H 0.0 **** 0.06
7475 H 22.448588669104907 107.865147533665 39.665898025374815 H 0.0 **** 0.06
7476 C 103.11865106253924 18.95611235686934 38.185541972411784 C 0.0 **** -0.24
7477 H 103.89177205864797 18.39590311670878 38.71173484661321 H 0.0 **** 0.06
7478 H 103.5679216621948 19.816363660475076 37.68929000526609 H 0.0 **** 0.06
7479 H 102.3692950016302 19.298051561664295 38.899531098070014 H 0.0 **** 0.06
7480 H 102.64646458442414 18.31267150263068 37.44268382507374 H 0.0 **** 0.06
7481 C 5.045621265080726 40.04318619752682 15.45712389014399 C 0.0 **** -0.24
7482 H 5.367249742194943 40.75073435183621 14.6932593138729 H 0.0 **** 0.06
7483 H 4.007546606831582 39.76422563485578 15.279038677253112 H 0.0 **** 0.06
7484 H 5.135220985532413 40.50574188063879 16.440408976673424 H 0.0 **** 0.06
7485 H 5.674451999783358 39.153478993100535 15.41581503103879 H 0.0 **** 0.06
7486 C 26.108640943865772 59.42334199075532 109.9364156429096 C 0.0 **** -0.24
7487 H 25.72750695307606 59.11915557010792 108.96105881097395 H 0.0 **** 0.06
7488 H 26.36404507561697 58.536534989911104 110.51769401350123 H 0.0 **** 0.06
7489 H 25.345179787709814 59.995525365137155 110.46215660345109 H 0.0 **** 0.06
7490 H 26.997738436080738 60.038849382466424 109.8022864282699 H 0.0 **** 0.06
7491 C 95.53640827553431 8.295637801687946 35.9221638310981 C 0.0 **** -0.24
7492 H 95.94030190093727 9.182613835200925 35.43372461934544 H 0.0 **** 0.06
7493 H 95.53766744036858 7.4624695847330145 35.22002889161016 H 0.0 **** 0.06
7494 H 94.51589773236586 8.493996988583064 36.24974321630506 H 0.0 **** 0.06
7495 H 96.15286601906234 8.044738668786636 36.78558602563043 H 0.0 **** 0.06
7496 C 99.7361547341333 101.82068131644257 73.87650624914156 C 0.0 **** -0.24
7497 H 100.4807556074804 101.874606187002 73.08191826042145 H 0.0 **** 0.06
7498 H 99.22052749476447 100.86156125405711 73.82735697555836 H 0.0 **** 0.06
7499 H 99.01487805651942 102.62833974021876 73.75345263729716 H 0.0 **** 0.06
7500 H 100.23036770213477 101.9193662400125 74.8434820866299 H 0.0 **** 0.06
7501 C 112.62140151235417 27.58201331148448 20.20962983831265 C 0.0 **** -0.24
7502 H 113.65154574042938 27.36535175215466 20.490613770988034 H 0.0 **** 0.06
7503 H 112.1600315183656 26.68302941896927 19.801264729635648 H 0.0 **** 0.06
7504 H 112.60769095622112 28.37108905656619 19.457799486801434 H 0.0 **** 0.06
7505 H 112.06592007245916 27.908018077381143 21.08955296508151 H 0.0 **** 0.06
7506 C 72.45076773213523 40.342206688419424 21.909412148959262 C 0.0 **** -0.24
7507 H 71.60821006550313 41.01387683636119 22.077576502256505 H 0.0 **** 0.06
7508 H 72.082889563175 39.32456884952592 21.773175775058235 H 0.0 **** 0.06
7509 H 73.11884446839929 40.375597626664046 22.769386478066394 H 0.0 **** 0.06
7510 H 72.99137083460855 40.655880214777255 21.016664946247886 H 0.0 **** 0.06
7511 C 57.705133046440835 86.37452174419982 85.95471266728589 C 0.0 **** -0.24
7512 H 57.549796067611396 87.00901644377541 86.82678504906096 H 0.0 **** 0.06
7513 H 58.76375169226253 86.36737353302209 85.69427288331474 H 0.0 **** 0.06
7514 H 57.126782166976 86.7621351915875 85.11604559091833 H 0.0 **** 0.06
7515 H 57.37900837480919 85.35939198404395 86.18248600569694 H 0.0 **** 0.06
7516 C 82.04995158672389 49.52551392788786 86.78274704675644 C 0.0 **** -0.24
7517 H 82.89567039757742 48.83903451292207 86.72306282495447 H 0.0 **** 0.06
7518 H 82.41817837510703 50.54679016523795 86.88291839489801 H 0.0 **** 0.06
7519 H 81.43910762485899 49.27242946899065 87.6495494029943 H 0.0 **** 0.06
7520 H 81.4493135858857 49.44202701740602 85.87712554459765 H 0.0 **** 0.06
7521 C 104.55499411919615 87.11869549759584 105.5938203352822 C 0.0 **** -0.24
7522 H 104.95316760077853 87.91506890942563 106.22231427926462 H 0.0 **** 0.06
7523 H 105.37152773820964 86.48428937520248 105.24979260464659 H 0.0 **** 0.06
7524 H 104.0461514859706 87.55439918414669 104.73309973793732 H 0.0 **** 0.06
7525 H 103.84802490163796 86.52092152446826 106.1691977745507 H 0.0 **** 0.06
7526 C 47.21902194872695 3.033077541293835 29.90581779205914 C 0.0 **** -0.24
7527 H 47.44531647224994 1.9934681213690908 30.14436857860227 H 0.0 **** 0.06
7528 H 47.22556531694377 3.166636507169585 28.824479952200278 H 0.0 **** 0.06
7529 H 47.968736275664895 3.681352988639375 30.358251987479576 H 0.0 **** 0.06
7530 H 46.23407555631428 3.2882374820099756 30.29736654131338 H 0.0 **** 0.06
7531 C 99.47262419231629 106.75031758655854 107.59764171657585 C 0.0 **** -0.24
7532 H 99.69588928179931 106.3886977907176 108.60135094225234 H 0.0 **** 0.06
7533 H 99.61112782263791 105.94033266980907 106.88081354651672 H 0.0 **** 0.06
7534 H 100.14412098517968 107.5730916966324 107.35015784233187 H 0.0 **** 0.06
7535 H 98.4413010365391 107.09873883862778 107.55799977243149 H 0.0 **** 0.06
7536 C 65.92175769858318 92.82013892592005 86.53451564508012 C 0.0 **** -0.24
7537 H 66.085476940586 91.74300591490422 86.54445648304878 H 0.0 **** 0.06
7538 H 66.88354843813059 93.33267252387026 86.49737629634063 H 0.0 **** 0.06
7539 H 65.38718155001428 93.11604550582277 87.43631215211028 H 0.0 **** 0.06
7540 H 65.33317590614541 93.08899897706422 85.65781039689841 H 0.0 **** 0.06
7541 C 42.61820355201911 103.1046065732763 44.78466508592922 C 0.0 **** -0.24
7542 H 41.658932829994 103.50750729415788 44.45850082268075 H 0.0 **** 0.06
7543 H 42.78509491701658 102.13641327410258 44.313925958412796 H 0.0 **** 0.06
7544 H 42.61199931700281 102.98703489410394 45.86840804994554 H 0.0 **** 0.06
7545 H 43.415154489062104 103.79065186880936 44.498290455537955 H 0.0 **** 0.06
7546 C 81.56953844217165 81.62114544881308 67.91606698100438 C 0.0 **** -0.24
7547 H 81.91063756090509 82.48886238653395 68.48169951221371 H 0.0 **** 0.06
7548 H 80.81992021058642 81.0823465864849 68.49750038817777 H 0.0 **** 0.06
7549 H 82.41485340049496 80.96336416113974 67.71373114002273 H 0.0 **** 0.06
7550 H 81.13089194480045 81.95103549593361 66.97442257508007 H 0.0 **** 0.06
7551 C 7.367913043512026 20.78955626973203 85.72254613807004 C 0.0 **** -0.24
7552 H 7.092645596269193 21.749872364602084 85.28849761282234 H 0.0 **** 0.06
7553 H 7.602310490898178 20.084043872817915 84.92518266669472 H 0.0 **** 0.06
7554 H 6.537374492713202 20.406555825627436 86.31519927738262 H 0.0 **** 0.06
7555 H 8.241220764510462 20.918168115001038 86.36279535945343 H 0.0 **** 0.06
7556 C 30.366100754390914 73.20775437852404 102.52902650266432 C 0.0 **** -0.24
7557 H 31.43359057256731 73.42690530201367 102.55406158603401 H 0.0 **** 0.06
7558 H 29.906891291321074 73.53521565007748 103.46162081921835 H 0.0 **** 0.06
7559 H 30.21865222793457 72.13470978795823 102.40823905001506 H 0.0 **** 0.06
7560 H 29.907095935300333 73.73388066796247 101.69293858591243 H 0.0 **** 0.06
7561 C 55.41789124343046 85.73054408962179 46.77648628445754 C 0.0 **** -0.24
7562 H 55.15945894987095 85.97498794209821 45.74692217579783 H 0.0 **** 0.06
7563 H 56.47794251382129 85.4779892349112 46.834794924136766 H 0.0 **** 0.06
7564 H 54.822398966263506 84.88019200755053 47.10899746283876 H 0.0 **** 0.06
7565 H 55.213888976576186 86.58937351046492 47.41582460064193 H 0.0 **** 0.06
7566 C 64.80267772094334 8.95999115497176 3.423320224950146 C 0.0 **** -0.24
7567 H 64.50816018238268 9.507238637172094 2.5272889428181315 H 0.0 **** 0.06
7568 H 63.93567398104725 8.443117182848766 3.8349501709927267 H 0.0 **** 0.06
7569 H 65.1942043974473 9.658271897004653 4.162330505999876 H 0.0 **** 0.06
7570 H 65.57201967938803 8.232231171157139 3.1670455766660552 H 0.0 **** 0.06
7571 C 100.20903721822498 49.54830603361831 34.78156833788882 C 0.0 **** -0.24
7572 H 100.34099752336252 49.296443260860514 33.729347825645796 H 0.0 **** 0.06
7573 H 99.18644894773828 49.322541970727706 35.08423682956931 H 0.0 **** 0.06
7574 H 100.40642539792765 50.60979985130662 34.92745222818335 H 0.0 **** 0.06
7575 H 100.90404618760437 48.962552868232564 35.38409071290684 H 0.0 **** 0.06
7576 C 66.47087469189034 34.85576233863591 59.00948472104016 C 0.0 **** -0.24
7577 H 66.9283443401475 34.15292894986706 58.31380728988308 H 0.0 **** 0.06
7578 H 65.38660769568992 34.8280261919154 58.89312200666415 H 0.0 **** 0.06
7579 H 66.83353468205283 35.86212522326454 58.80009306067142 H 0.0 **** 0.06
7580 H 66.73388697732787 34.5793853004879 60.03028912530741 H 0.0 **** 0.06
7581 C 91.81346222015202 60.08184083784255 86.12476490065484 C 0.0 **** -0.24
7582 H 91.3449526209813 59.79856615572501 85.18227744956818 H 0.0 **** 0.06
7583 H 92.29089651901631 61.05558441062189 86.0152006013409 H 0.0 **** 0.06
7584 H 92.56253132180757 59.33720908199106 86.39544083423945 H 0.0 **** 0.06
7585 H 91.05459580662284 60.13376918270316 86.90564492797557 H 0.0 **** 0.06
7586 C 88.29836521872411 39.83773036811971 65.9132800357431 C 0.0 **** -0.24
7587 H 88.53078957568013 38.78434587190847 65.75754500668324 H 0.0 **** 0.06
7588 H 88.34108502090595 40.06492778186447 66.97934281402905 H 0.0 **** 0.06
7589 H 87.29775475062979 40.04851897743137 65.53593239797274 H 0.0 **** 0.06
7590 H 89.02466749373181 40.452796363188355 65.3817800557866 H 0.0 **** 0.06
7591 C 73.09173705213286 24.590974425422985 67.50817353072182 C 0.0 **** -0.24
7592 H 73.189789319775 25.583334726837393 67.066713179723 H 0.0 **** 0.06
7593 H 73.984743794645 24.363782598532794 68.09091125300401 H 0.0 **** 0.06
7594 H 72.9751658848289 23.851144153301163 66.71621158509916 H 0.0 **** 0.06
7595 H 72.21813596689276 24.567688791895023 68.15882801230933 H 0.0 **** 0.06
7596 C 88.97646193796675 13.692547571950485 45.20036832161816 C 0.0 **** -0.24
7597 H 89.48409356354523 13.475554484112777 46.14015846594668 H 0.0 **** 0.06
7598 H 89.28314394883435 12.966931853744939 44.446712305991355 H 0.0 **** 0.06
7599 H 89.240276448218 14.695216784355267 44.86806034771729 H 0.0 **** 0.06
7600 H 87.89842246622919 13.629691912284386 45.34762807944185 H 0.0 **** 0.06
7601 C 36.5897194257829 76.05393939616607 110.01856358915688 C 0.0 **** -0.24
7602 H 36.928326957081225 77.06215652541835 110.25922020084461 H 0.0 **** 0.06
7603 H 35.514587686661486 75.98237472272348 110.18210750452491 H 0.0 **** 0.06
7604 H 37.103494821948544 75.33709427251142 110.65869113263986 H 0.0 **** 0.06
7605 H 36.81471542534007 75.83568270591229 108.9749745111928 H 0.0 **** 0.06
7606 C 55.122791904677904 56.75224559239487 94.62372697134273 C 0.0 **** -0.24
7607 H 54.37171499249264 57.44894957711054 94.2541971297671 H 0.0 **** 0.06
7608 H 54.765170961953416 56.286565801840965 95.54349386151182 H 0.0 **** 0.06
7609 H 56.04974186742482 57.289423141148546 94.82563899075285 H 0.0 **** 0.06
7610 H 55.30578930594929 55.98283299017274 93.87380792587624 H 0.0 **** 0.06
7611 C 67.63674434962223 13.47405949882696 52.34242896087744 C 0.0 **** -0.24
7612 H 67.27786161759218 13.921211380900147 51.4155720399564 H 0.0 **** 0.06
7613 H 68.6916602222089 13.21650585918286 52.236792124899665 H 0.0 **** 0.06
7614 H 67.06211915972762 12.572571040648967 52.556122352100545 H 0.0 **** 0.06
7615 H 67.51608262694322 14.184668987562432 53.15927914131669 H 0.0 **** 0.06
7616 C 88.1888366013417 107.88802470476827 31.975830872936427 C 0.0 **** -0.24
7617 H 88.55609183444858 106.86894025772341 32.095663482668414 H 0.0 **** 0.06
7618 H 89.01223454770363 108.5889219961129 32.11170278291149 H 0.0 **** 0.06
7619 H 87.41631576778437 108.08526372930564 32.71932716744283 H 0.0 **** 0.06
7620 H 87.7693169279446 108.00869836757316 30.976619909077783 H 0.0 **** 0.06
7621 C 16.956006385213367 27.00107688111575 102.26071496697779 C 0.0 **** -0.24
7622 H 17.173659630494456 27.792206061072704 102.97895109314928 H 0.0 **** 0.06
7623 H 17.596950553112208 27.119217561770512 101.38549505484855 H 0.0 **** 0.06
7624 H 15.911788366477655 27.06252053028072 101.9577534594118 H 0.0 **** 0.06
7625 H 17.14530176370492 26.03099776611643 102.7203530451591 H 0.0 **** 0.06
7626 C 23.965822896626623 70.17509373932188 75.87009091930074 C 0.0 **** -0.24
7627 H 24.36507959277955 69.21968855242079 75.52936900905542 H 0.0 **** 0.06
7628 H 24.54094822246978 70.98789201103983 75.42567977559153 H 0.0 **** 0.06
7629 H 24.035396445805766 70.2311747172875 76.95610003302818 H 0.0 **** 0.06
7630 H 22.921612339434873 70.26041793427919 75.56851420903132 H 0.0 **** 0.06
7631 C 47.249250334454445 65.6145883820993 96.72469162015474 C 0.0 **** -0.24
7632 H 46.810762554851465 64.99265709225341 95.94484530319016 H 0.0 **** 0.06
7633 H 46.84790555925167 66.62577067521275 96.65312930850936 H 0.0 **** 0.06
7634 H 48.33191604904874 65.64310818534133 96.60105113241815 H 0.0 **** 0.06
7635 H 47.006674885498 65.19546169972588 97.70240451131909 H 0.0 **** 0.06
7636 C 78.54587742756678 82.25316725161 104.3128560759938 C 0.0 **** -0.24
7637 H 78.87762131217309 82.04463858554516 105.32959012866672 H 0.0 **** 0.06
7638 H 77.48635929955086 82.01665141552988 104.22045517744942 H 0.0 **** 0.06
7639 H 79.11673794278948 81.64281812552508 103.61262065689357 H 0.0 **** 0.06
7640 H 78.70484413371827 83.30773400184177 104.08843922049991 H 0.0 **** 0.06
7641 C 97.07098985330285 69.22250992634525 52.03516097137208 C 0.0 **** -0.24
7642 H 96.47091146470262 69.9223372408486 52.61608868052326 H 0.0 **** 0.06
7643 H 97.8460865455302 69.7683526929413 51.49633425015793 H 0.0 **** 0.06
7644 H 96.43246519531499 68.69995343945561 51.32286231809684 H 0.0 **** 0.06
7645 H 97.5348166195729 68.49802778095147 52.705515216763274 H 0.0 **** 0.06
7646 C 28.4566977731792 31.882025821283378 15.598103920179398 C 0.0 **** -0.24
7647 H 27.892541047561615 32.81108051079133 15.522071616854205 H 0.0 **** 0.06
7648 H 29.411928998828458 31.993847344088124 15.08358109935405 H 0.0 **** 0.06
7649 H 27.888738998862927 31.07322996840668 15.137781730454762 H 0.0 **** 0.06
7650 H 28.634191878242426 31.649945470026296 16.64770521686478 H 0.0 **** 0.06
7651 C 20.317721943785543 19.64812272619264 68.57257449564122 C 0.0 **** -0.24
7652 H 20.905770893065068 18.75918550028814 68.80274287228366 H 0.0 **** 0.06
7653 H 19.283780334924217 19.48792837111216 68.87618747021997 H 0.0 **** 0.06
7654 H 20.357067927376292 19.841126180138247 67.50092067973739 H 0.0 **** 0.06
7655 H 20.72762049311821 20.502934226913624 69.11026757903375 H 0.0 **** 0.06
7656 C 27.926343203968344 4.391224858533116 87.18203911945852 C 0.0 **** -0.24
7657 H 27.793344246690282 3.7872994081458824 86.2840626411114 H 0.0 **** 0.06
7658 H 26.977887250501666 4.859406639930851 87.44810977938258 H 0.0 **** 0.06
7659 H 28.672222511414333 5.163445835202372 86.99349676962564 H 0.0 **** 0.06
7660 H 28.260543883251586 3.7549419185264625 88.00104783224327 H 0.0 **** 0.06
7661 C 21.196291262702715 58.71736872060603 55.05519486176854 C 0.0 **** -0.24
7662 H 21.794052806999616 59.24354640044629 55.79936323484998 H 0.0 **** 0.06
7663 H 20.13868428331071 58.91799616624195 55.23196760959203 H 0.0 **** 0.06
7664 H 21.3816193258167 57.64579414662154 55.13231073155677 H 0.0 **** 0.06
7665 H 21.47012754614468 59.06352009907488 54.05875857203611 H 0.0 **** 0.06
7666 C 41.06545233302026 40.77951795844887 96.20326384593565 C 0.0 **** -0.24
7667 H 42.02239316813041 40.49691342947696 95.76435005466439 H 0.0 **** 0.06
7668 H 40.89653649973113 41.845768566583835 96.04993244422582 H 0.0 **** 0.06
7669 H 41.07922584284111 40.56407557277019 97.27208156105516 H 0.0 **** 0.06
7670 H 40.26528652738281 40.21250290896119 95.72807759104941 H 0.0 **** 0.06
7671 C 47.85969616337283 48.55984609389188 72.162522066359 C 0.0 **** -0.24
7672 H 47.7571109957577 47.48034055492175 72.04335589979587 H 0.0 **** 0.06
7673 H 48.79765172545851 48.7805968511151 72.67135289936249 H 0.0 **** 0.06
7674 H 47.02633120181346 48.94018854292031 72.75297937616938 H 0.0 **** 0.06
7675 H 47.856181553844294 49.034584982915405 71.18090703338302 H 0.0 **** 0.06
7676 C 52.678179533036825 103.9128209830777 14.359369366244177 C 0.0 **** -0.24
7677 H 53.3381485394973 103.10957014488 14.033451695296247 H 0.0 **** 0.06
7678 H 53.186404218400554 104.8700235582472 14.243208768645573 H 0.0 **** 0.06
7679 H 52.41587686292698 103.76485353212101 15.406746714374808 H 0.0 **** 0.06
7680 H 51.771835524283006 103.90652152717675 13.753236303801241 H 0.0 **** 0.06
7681 C 18.457601192032318 85.54377080250379 78.76116567456683 C 0.0 **** -0.24
7682 H 18.82913756087161 84.68582292059756 78.20101700174317 H 0.0 **** 0.06
7683 H 17.61128205225273 85.23706117714482 79.37603275392212 H 0.0 **** 0.06
7684 H 18.14117512418652 86.32097722259476 78.06653049410858 H 0.0 **** 0.06
7685 H 19.25128506298373 85.92959064007852 79.40154478066455 H 0.0 **** 0.06
7686 C 71.12805059413878 75.85325439237926 92.1577044239261 C 0.0 **** -0.24
7687 H 70.56301554265994 75.21382838872006 92.8363524915321 H 0.0 **** 0.06
7688 H 70.53547298981468 76.04499311122629 91.26215066237802 H 0.0 **** 0.06
7689 H 72.05726189267955 75.35568067103739 91.87995067061033 H 0.0 **** 0.06
7690 H 71.35511390202174 76.79680400381267 92.65289399908025 H 0.0 **** 0.06
7691 C 12.19353211410592 38.194563250733964 98.71347122472392 C 0.0 **** -0.24
7692 H 11.771346441745237 38.91237931613035 98.00975553011682 H 0.0 **** 0.06
7693 H 11.634843781163255 38.23129774026547 99.64920322100127 H 0.0 **** 0.06
7694 H 13.237735215564896 38.44361467034185 98.90317277548928 H 0.0 **** 0.06
7695 H 12.130186779539173 37.192374969718884 98.29178970947498 H 0.0 **** 0.06
7696 C 19.86994815170487 74.54887785192369 54.01375785278378 C 0.0 **** -0.24
7697 H 20.50838617349944 73.87340101025745 54.583046277397216 H 0.0 **** 0.06
7698 H 19.956925248869844 75.5580592787137 54.4180761686402 H 0.0 **** 0.06
7699 H 18.83414481560194 74.21673511525358 54.08655939167954 H 0.0 **** 0.06
7700 H 20.178929150182825 74.54729800156662 52.96908730043293 H 0.0 **** 0.06
7701 C 79.13699521800768 19.914253334164606 58.622392716678604 C 0.0 **** -0.24
7702 H 78.47297173558854 20.710961356446735 58.28860015503665 H 0.0 **** 0.06
7703 H 78.64716025971737 18.950287445518217 58.48357309278984 H 0.0 **** 0.06
7704 H 79.37022869371768 20.05344457281307 59.67828729837677 H 0.0 **** 0.06
7705 H 80.05875263012751 19.94098042140617 58.040497215768454 H 0.0 **** 0.06
7706 C 30.892142221467793 11.703352729816373 82.18015554847742 C 0.0 **** -0.24
7707 H 31.04460917329166 10.65024338283476 81.94741786780756 H 0.0 **** 0.06
7708 H 31.204448361057672 11.897320274691708 83.20646879387425 H 0.0 **** 0.06
7709 H 29.83661298633473 11.951451056955875 82.066922748329 H 0.0 **** 0.06
7710 H 31.483697111332674 12.315502562934995 81.49804127046306 H 0.0 **** 0.06
7711 C 102.86212686035239 89.20522370324215 4.230761078803752 C 0.0 **** -0.24
7712 H 103.257657637036 89.02402473710418 5.229820981477204 H 0.0 **** 0.06
7713 H 101.80186823806369 89.44864358503565 4.298383541390194 H 0.0 **** 0.06
7714 H 102.99146885325052 88.30975022833019 3.6214152028721713 H 0.0 **** 0.06
7715 H 103.39798836317217 90.03687707998756 3.7729592482705527 H 0.0 **** 0.06
7716 C 36.13817251708184 60.99918938417528 62.36118700060001 C 0.0 **** -0.24
7717 H 35.094732782967014 60.94190388398505 62.67004496948118 H 0.0 **** 0.06
7718 H 36.70047692816354 60.190248579176796 62.82816124322403 H 0.0 **** 0.06
7719 H 36.55619104590539 61.957866378213566 62.67085038324353 H 0.0 **** 0.06
7720 H 36.20180858900255 60.908561593041725 61.277243094215976 H 0.0 **** 0.06
7721 C 99.79470730004124 9.892516459798088 34.277627254538174 C 0.0 **** -0.24
7722 H 100.43155097699753 9.696828604570868 33.41548531132486 H 0.0 **** 0.06
7723 H 100.14200912563766 10.790343374669163 34.78974317113443 H 0.0 **** 0.06
7724 H 99.8381726861424 9.044085392805044 34.96060959648031 H 0.0 **** 0.06
7725 H 98.76709641138731 10.038808467147419 33.94467093921298 H 0.0 **** 0.06
7726 C 75.63037252450005 35.899873194592885 14.912625402875648 C 0.0 **** -0.24
7727 H 76.51388826847639 35.56852270917835 15.457738367166087 H 0.0 **** 0.06
7728 H 75.616726735887 36.98931262852989 14.870709502331351 H 0.0 **** 0.06
7729 H 74.73476796532938 35.544301854472906 15.421174153677413 H 0.0 **** 0.06
7730 H 75.65681125850708 35.49675055343323 13.899812700577087 H 0.0 **** 0.06
7731 C 88.24315958600394 61.14939653044203 110.3942300458949 C 0.0 **** -0.24
7732 H 89.28100006105109 60.821639388837525 110.35329488951996 H 0.0 **** 0.06
7733 H 88.11015130334272 61.82738489742738 111.23760006595538 H 0.0 **** 0.06
7734 H 87.59287826300417 60.2835848379882 110.51799065115856 H 0.0 **** 0.06
7735 H 87.98803265197796 61.6663804176666 109.46887047860245 H 0.0 **** 0.06
7736 C 55.30068681219497 55.56651735732794 6.923097320752438 C 0.0 **** -0.24
7737 H 55.74387726894973 54.672754768692414 7.362158863516555 H 0.0 **** 0.06
7738 H 56.08259683950354 56.171502889000806 6.46465803966646 H 0.0 **** 0.06
7739 H 54.802220418679134 56.14444221817462 7.7017278718650335 H 0.0 **** 0.06
7740 H 54.574193759775305 55.275023073766135 6.164533334290278 H 0.0 **** 0.06
7741 C 63.869676081338014 85.76173890629829 84.23247187832044 C 0.0 **** -0.24
7742 H 63.9833233134226 86.82593099422363 84.0250787370322 H 0.0 **** 0.06
7743 H 63.523499213929995 85.25111614373802 83.33250826961074 H 0.0 **** 0.06
7744 H 63.14108751775336 85.62284364833846 85.03165536360561 H 0.0 **** 0.06
7745 H 64.83005068359341 85.34628407056633 84.53896059807013 H 0.0 **** 0.06
7746 C 79.71030899687776 41.47784349806082 63.35202480739565 C 0.0 **** -0.24
7747 H 80.55204128253939 40.814412000005746 63.55337489658359 H 0.0 **** 0.06
7748 H 80.07643451278477 42.409547182278345 62.92099147902513 H 0.0 **** 0.06
7749 H 79.1838332105857 41.688917000828184 64.28193260888133 H 0.0 **** 0.06
7750 H 79.02919176197952 40.9957942786902 62.650526932474804 H 0.0 **** 0.06
7751 C 50.30712815879902 107.05013663902571 51.13031732664206 C 0.0 **** -0.24
7752 H 50.10700294620954 106.50334058781104 50.208787958761604 H 0.0 **** 0.06
7753 H 50.515075510712805 108.09426294533313 50.89454922546929 H 0.0 **** 0.06
7754 H 51.16855845206534 106.61114245775536 51.63277856866699 H 0.0 **** 0.06
7755 H 49.43646076581462 106.99198295282801 51.78271120323927 H 0.0 **** 0.06
7756 C 6.074466141822256 27.873474215344878 71.91453930287369 C 0.0 **** -0.24
7757 H 6.786274336827418 28.235272200973448 72.65786481313597 H 0.0 **** 0.06
7758 H 6.410086831962374 26.910673913579174 71.52971895667983 H 0.0 **** 0.06
7759 H 6.008508204944164 28.589870130730944 71.09670696220772 H 0.0 **** 0.06
7760 H 5.094120092559706 27.75818747220542 72.3779560032855 H 0.0 **** 0.06
7761 C 11.168267427975465 62.12852520888082 52.90756988265724 C 0.0 **** -0.24
7762 H 10.30780769889347 61.513132628648115 53.16924981430279 H 0.0 **** 0.06
7763 H 11.202769823641916 62.2649038065809 51.82646217305396 H 0.0 **** 0.06
7764 H 12.082240063392078 61.63706226248258 53.24116632668511 H 0.0 **** 0.06
7765 H 11.08043512752009 63.099961740755866 53.393615060800144 H 0.0 **** 0.06
7766 C 29.677066845749998 27.71246488610425 89.81651088846596 C 0.0 **** -0.24
7767 H 30.22183162678723 27.176974349480908 89.03840700265127 H 0.0 **** 0.06
7768 H 30.016241174374542 27.373942925343435 90.79505112479325 H 0.0 **** 0.06
7769 H 28.60898447001039 27.51517701014513 89.71290077354385 H 0.0 **** 0.06
7770 H 29.86000278208804 28.78209160044573 89.71656343282973 H 0.0 **** 0.06
7771 C 96.518299661794 24.068462595929418 9.10245843077027 C 0.0 **** -0.24
7772 H 97.15629841312841 23.18424869327896 9.090592123264472 H 0.0 **** 0.06
7773 H 96.41006968592504 24.423708839107974 10.127475404017005 H 0.0 **** 0.06
7774 H 95.53861035452223 23.81472989846111 8.699458576160353 H 0.0 **** 0.06
7775 H 96.97108254659696 24.850336070518722 8.492659345971617 H 0.0 **** 0.06
7776 C 91.39327022723822 18.95481568908224 71.02928166158546 C 0.0 **** -0.24
7777 H 91.65536553842693 19.707385170791028 71.77255992681765 H 0.0 **** 0.06
7778 H 91.8441834057459 18.000792024960987 71.30353077668988 H 0.0 **** 0.06
7779 H 91.7643723061644 19.265381216203252 70.05164686567986 H 0.0 **** 0.06
7780 H 90.30950493241906 18.847032225031583 70.98833186897753 H 0.0 **** 0.06
7781 C 109.8532114551698 20.960708582957068 2.5745822211134364 C 0.0 **** -0.24
7782 H 110.49925569643494 21.25266915236915 1.7479298559166399 H 0.0 **** 0.06
7783 H 110.07404104912587 19.932588934634566 2.862654620656645 H 0.0 **** 0.06
7784 H 108.81025462356246 21.034598293565864 2.2643503321808307 H 0.0 **** 0.06
7785 H 110.02735022757292 21.62251717525544 3.4234829884204263 H 0.0 **** 0.06
7786 C 19.314339601543452 73.95135106456067 14.294889952216248 C 0.0 **** -0.24
7787 H 18.394896356902507 73.45006171845199 13.993072985065012 H 0.0 **** 0.06
7788 H 19.0827370979012 74.72451956483599 15.028767495224248 H 0.0 **** 0.06
7789 H 19.78176639392626 74.40723682750652 13.421454312116424 H 0.0 **** 0.06
7790 H 19.997528813807435 73.22498977245195 14.735345599564113 H 0.0 **** 0.06
7791 C 4.754011295212848 109.38112364337167 39.80834197923619 C 0.0 **** -0.24
7792 H 3.726235833606893 109.30335025913212 39.45605488219002 H 0.0 **** 0.06
7793 H 5.315585696804561 108.50345479929013 39.488177981682924 H 0.0 **** 0.06
7794 H 4.761953870817479 109.44034455466874 40.896188992959615 H 0.0 **** 0.06
7795 H 5.213007274249321 110.27847725631477 39.39252878193868 H 0.0 **** 0.06
7796 C 18.247574463002906 69.98270084383765 43.75365038801735 C 0.0 **** -0.24
7797 H 17.36677455024156 70.15569464501283 43.13626721706132 H 0.0 **** 0.06
7798 H 18.942950315163188 69.33300003192483 43.22004210561015 H 0.0 **** 0.06
7799 H 17.949040229154775 69.50659373479422 44.68712383109957 H 0.0 **** 0.06
7800 H 18.73234922823471 70.93421813198995 43.969883162879285 H 0.0 **** 0.06
7801 C 97.98678986333482 97.6069111205644 109.40376386252328 C 0.0 **** -0.24
7802 H 97.5612575294061 96.68274015610609 109.79493601853275 H 0.0 **** 0.06
7803 H 97.88509413255454 98.39725409712116 110.14862455004686 H 0.0 **** 0.06
7804 H 97.45959041864378 97.89307810203888 108.49403997271085 H 0.0 **** 0.06
7805 H 99.04301368997724 97.45272421822847 109.17954275494799 H 0.0 **** 0.06
7806 C 101.23553817060929 50.015161498436555 60.60669871009848 C 0.0 **** -0.24
7807 H 101.54721800279384 48.97185818733669 60.64864191316479 H 0.0 **** 0.06
7808 H 102.09579423122506 50.64178545840002 60.37085485277721 H 0.0 **** 0.06
7809 H 100.82478576013415 50.31032427636097 61.5729367026262 H 0.0 **** 0.06
7810 H 100.47494012348892 50.13708892596105 59.835938912483236 H 0.0 **** 0.06
7811 C 72.35338192816869 97.54213345654318 7.305848173909048 C 0.0 **** -0.24
7812 H 73.08253811384691 97.08862006229836 7.9781385254276245 H 0.0 **** 0.06
7813 H 72.87551326510768 98.05381297405407 6.496626081591822 H 0.0 **** 0.06
7814 H 71.74788670551186 98.26095229739192 7.858453306738115 H 0.0 **** 0.06
7815 H 71.7101204926181 96.76737191801567 6.891460021701834 H 0.0 **** 0.06
7816 C 48.49235744771842 82.97227153187765 43.62431494372248 C 0.0 **** -0.24
7817 H 48.78892381983341 81.98210873355978 43.97189438915407 H 0.0 **** 0.06
7818 H 47.46515294010123 83.17079745953865 43.92800338726198 H 0.0 **** 0.06
7819 H 48.565026414578234 83.01132707568823 42.53732539012453 H 0.0 **** 0.06
7820 H 49.15311972367929 83.72241693197793 44.05952123806796 H 0.0 **** 0.06
7821 C 9.354641356093282 6.4775771329494205 48.19614228109535 C 0.0 **** -0.24
7822 H 9.807131713290829 5.54231751458849 47.866350954197344 H 0.0 **** 0.06
7823 H 8.825221739798366 6.313632481377056 49.134738793001134 H 0.0 **** 0.06
7824 H 8.652947013125896 6.827333030319025 47.43884494402823 H 0.0 **** 0.06
7825 H 10.13311153664199 7.225600998471165 48.3426475809037 H 0.0 **** 0.06
7826 C 17.183564960251786 35.03068196386597 98.38654221017 C 0.0 **** -0.24
7827 H 16.390384193219873 35.751684698613985 98.1915148905639 H 0.0 **** 0.06
7828 H 18.122842396198124 35.55936247337985 98.55322540598809 H 0.0 **** 0.06
7829 H 17.287946642581787 34.36500029717945 97.52987555297187 H 0.0 **** 0.06
7830 H 16.93329780379399 34.44538144475281 99.27207093042975 H 0.0 **** 0.06
7831 C 31.114806144300275 32.303002818301565 62.92452136898891 C 0.0 **** -0.24
7832 H 31.856764737917473 33.037284187423154 63.23642943416929 H 0.0 **** 0.06
7833 H 30.752726711089707 32.553661073017565 61.927502660039146 H 0.0 **** 0.06
7834 H 30.28073776762355 32.30792967098037 63.62659692569455 H 0.0 **** 0.06
7835 H 31.569026427175345 31.3117279775675 62.90768159015645 H 0.0 **** 0.06
7836 C 25.08730085522812 93.24800571913704 51.844177415429584 C 0.0 **** -0.24
7837 H 24.737445597835784 94.02940708837636 51.16872449159901 H 0.0 **** 0.06
7838 H 25.628353958380835 92.49196992064157 51.275490524663404 H 0.0 **** 0.06
7839 H 24.233480730566857 92.78788964565402 52.34087022250644 H 0.0 **** 0.06
7840 H 25.750225230165057 93.68495498026365 52.59189733897391 H 0.0 **** 0.06
7841 C 86.84852356679443 76.41370973132712 26.800011924004195 C 0.0 **** -0.24
7842 H 87.4685667810233 77.28952474244932 26.610637092403437 H 0.0 **** 0.06
7843 H 86.15707854951592 76.27246583250144 25.969189228879117 H 0.0 **** 0.06
7844 H 86.28529981925084 76.55957958690249 27.72166770378277 H 0.0 **** 0.06
7845 H 87.48374381848129 75.53407255080197 26.898535972544607 H 0.0 **** 0.06
7846 C 101.74332297562157 70.00787378515366 40.829623231021905 C 0.0 **** -0.24
7847 H 101.96638577573606 68.94244141562666 40.8826253134697 H 0.0 **** 0.06
7848 H 101.33283789920247 70.24396527884375 39.847625153553984 H 0.0 **** 0.06
7849 H 102.65853595115644 70.57882818768536 40.98708651604242 H 0.0 **** 0.06
7850 H 101.01725315980809 70.26584269777123 41.59946344473484 H 0.0 **** 0.06
7851 C 58.92221597996245 69.59368587664537 102.52302669890491 C 0.0 **** -0.24
7852 H 59.19889779006376 69.09372313023854 101.59500741190536 H 0.0 **** 0.06
7853 H 59.81771460122928 69.98564402547603 103.00518063073201 H 0.0 **** 0.06
7854 H 58.43256240154573 68.88216582895717 103.18741133625451 H 0.0 **** 0.06
7855 H 58.2387702789513 70.41453481468275 102.30295749720989 H 0.0 **** 0.06
7856 C 38.65116521910818 67.5646154649892 54.00385347616296 C 0.0 **** -0.24
7857 H 38.208649948269 68.35509025447692 53.399142692158485 H 0.0 **** 0.06
7858 H 39.697130641267336 67.4352826253365 53.723177819914724 H 0.0 **** 0.06
7859 H 38.111960985458836 66.63274929261826 53.83561084698454 H 0.0 **** 0.06
7860 H 38.58890446284141 67.83524312463598 55.05770623444927 H 0.0 **** 0.06
7861 C 44.01200429599379 15.702433460149933 0.14238880882527383 C 0.0 **** -0.24
7862 H 43.129063130155316 15.078027009107018 0.2826490319702373 H 0.0 **** 0.06
7863 H 44.02352816195253 16.491020201813456 0.8948617635591631 H 0.0 **** 0.06
7864 H 43.98638582540309 16.148028072268943 -0.8523184629722209 H 0.0 **** 0.06
7865 H 44.908136970434725 15.08983993613353 0.24324918873338675 H 0.0 **** 0.06
7866 C 52.682125298442145 80.18022569666368 28.31867520968538 C 0.0 **** -0.24
7867 H 52.05064858951829 80.53232814851873 27.502997934500357 H 0.0 **** 0.06
7868 H 53.66973873755268 80.63524730398913 28.234976363924346 H 0.0 **** 0.06
7869 H 52.77555186809565 79.09570883000654 28.263611407081413 H 0.0 **** 0.06
7870 H 52.23255505545848 80.45874136485412 29.272255337296514 H 0.0 **** 0.06
7871 C 5.650074590751956 54.66924844187332 86.97892984912025 C 0.0 **** -0.24
7872 H 4.855772427284819 54.24385756972862 86.36488333993364 H 0.0 **** 0.06
7873 H 5.221475729688791 55.37782542342903 87.68728218756442 H 0.0 **** 0.06
7874 H 6.367378763819829 55.18416866325478 86.33831031325676 H 0.0 **** 0.06
7875 H 6.155861337120427 53.8711825157388 87.52193252396131 H 0.0 **** 0.06
7876 C 55.756047744967475 34.86093115614452 37.64580709433184 C 0.0 **** -0.24
7877 H 55.81052720507142 35.57295481000301 36.82251451277733 H 0.0 **** 0.06
7878 H 54.71310859228561 34.608778987506795 37.83964630928821 H 0.0 **** 0.06
7879 H 56.19509557263905 35.305293628103556 38.53939112669016 H 0.0 **** 0.06
7880 H 56.306219589074146 33.95779073989381 37.38215257277068 H 0.0 **** 0.06
7881 C 53.58545794895815 91.21434815001788 77.93655194252375 C 0.0 **** -0.24
7882 H 53.182549563272005 91.25605688116076 76.92449482094096 H 0.0 **** 0.06
7883 H 53.98750315170594 90.21868270582848 78.12637928562773 H 0.0 **** 0.06
7884 H 52.791254035773534 91.42903531124071 78.65165400764064 H 0.0 **** 0.06
7885 H 54.37879845462953 91.95401524391349 78.04198815180476 H 0.0 **** 0.06
7886 C 109.50876802282316 74.87091347398501 78.62552172531483 C 0.0 **** -0.24
7887 H 110.54815980605747 74.60348623048208 78.43099956665932 H 0.0 **** 0.06
7888 H 109.08824484034857 75.35731247112699 77.74444865816363 H 0.0 **** 0.06
7889 H 109.46325760692471 75.55269960171108 79.47416052388246 H 0.0 **** 0.06
7890 H 108.9384696590296 73.96981137931272 78.85124541730559 H 0.0 **** 0.06
7891 C 67.29223124509946 98.84237802103354 51.24769083042037 C 0.0 **** -0.24
7892 H 67.20356332818238 98.43004799652186 52.2533032804389 H 0.0 **** 0.06
7893 H 66.8699408490084 99.84656041533924 51.227970962358995 H 0.0 **** 0.06
7894 H 66.75313764564845 98.20627324015075 50.546132457487545 H 0.0 **** 0.06
7895 H 68.34415187806906 98.88423996377344 50.964247750995526 H 0.0 **** 0.06
7896 C 68.07760084282367 33.386169156513915 69.80648258515083 C 0.0 **** -0.24
7897 H 67.49012586377958 32.500378415447614 69.5661926205737 H 0.0 **** 0.06
7898 H 67.8053593177874 34.19699045614857 69.13011447984621 H 0.0 **** 0.06
7899 H 69.13787614698143 33.16052997544796 69.69575956703056 H 0.0 **** 0.06
7900 H 67.8757818346433 33.68850938767358 70.83450686099195 H 0.0 **** 0.06
7901 C 98.25987422348615 26.758066253195615 46.60608150835759 C 0.0 **** -0.24
7902 H 97.59622112822339 26.77102856499745 45.74153253099763 H 0.0 **** 0.06
7903 H 97.67307108785795 26.880468107952368 47.516145365215664 H 0.0 **** 0.06
7904 H 98.97970558713394 27.572201530841305 46.524786257563335 H 0.0 **** 0.06
7905 H 98.79010133098242 25.805609216117624 46.64155375290909 H 0.0 **** 0.06
7906 C 19.139274623683207 9.247281503387399 99.99996963932321 C 0.0 **** -0.24
7907 H 18.447484010489518 9.778477239032071 99.34664108639362 H 0.0 **** 0.06
7908 H 19.62519659663974 9.959153075322206 100.6683259625967 H 0.0 **** 0.06
7909 H 19.893172505725403 8.741790756780347 99.39735166955143 H 0.0 **** 0.06
7910 H 18.591755171365236 8.511596210807966 100.58903074285664 H 0.0 **** 0.06
7911 C 13.171104208348233 88.54611984888786 21.4257797530676 C 0.0 **** -0.24
7912 H 12.15059689727951 88.71817481975486 21.084968583913792 H 0.0 **** 0.06
7913 H 13.860877125918282 88.69067745731218 20.594712507043184 H 0.0 **** 0.06
7914 H 13.26178445206218 87.5264811663634 21.801077602842867 H 0.0 **** 0.06
7915 H 13.411102113391731 89.24884707475584 22.22457567227258 H 0.0 **** 0.06
7916 C 62.21170913023665 82.13653030229338 84.3257007961979 C 0.0 **** -0.24
7917 H 61.74820193601929 81.21263502790447 83.97999719059877 H 0.0 **** 0.06
7918 H 62.732344148665625 81.95258977391819 85.26569732342475 H 0.0 **** 0.06
7919 H 61.44262594193575 82.8940147971384 84.47787075931302 H 0.0 **** 0.06
7920 H 62.923723053835666 82.48672951341922 83.57783308022101 H 0.0 **** 0.06
7921 C 58.56282078657696 17.643865621912227 31.007486043675215 C 0.0 **** -0.24
7922 H 58.080896983840084 17.0569774634816 31.789278928912495 H 0.0 **** 0.06
7923 H 57.89607439012996 17.721083747613832 30.14859489833671 H 0.0 **** 0.06
7924 H 59.490266826191466 17.156147557356803 30.705944386483452 H 0.0 **** 0.06
7925 H 58.78465020912396 18.641822453053862 31.386682966579883 H 0.0 **** 0.06
7926 C 103.38973117017733 22.351664116632293 27.978321053600638 C 0.0 **** -0.24
7927 H 104.2893052130176 22.96654996528312 27.95522754723399 H 0.0 **** 0.06
7928 H 103.62187559131436 21.383870526682543 28.422818437365265 H 0.0 **** 0.06
7929 H 103.02195217679423 22.20775389619638 26.96260956699274 H 0.0 **** 0.06
7930 H 102.62442289853593 22.850767402103685 28.57400858658565 H 0.0 **** 0.06
7931 C 89.0166618705417 54.905173432672704 56.337263745097204 C 0.0 **** -0.24
7932 H 89.24853490333786 54.85440530653874 55.27278736663453 H 0.0 **** 0.06
7933 H 88.08314455790338 54.375052974360784 56.52996611213132 H 0.0 **** 0.06
7934 H 88.91204195068136 55.947184498617816 56.6372619496679 H 0.0 **** 0.06
7935 H 89.82228428632644 54.44218059537393 56.90657166828254 H 0.0 **** 0.06
7936 C 10.467844593243687 32.447515809856924 89.30940510764668 C 0.0 **** -0.24
7937 H 9.739184670378535 32.997305371146126 88.71421899525168 H 0.0 **** 0.06
7938 H 11.401697806589691 32.36450625035667 88.75498570012019 H 0.0 **** 0.06
7939 H 10.082251760764859 31.450860752883102 89.52420328468389 H 0.0 **** 0.06
7940 H 10.6455657271486 32.977753462811876 90.24551443496148 H 0.0 **** 0.06
7941 C 28.71376404842752 84.15568468993371 92.79087346736173 C 0.0 **** -0.24
7942 H 28.7505527590842 83.93089240294819 91.72470207552772 H 0.0 **** 0.06
7943 H 29.72786348927042 84.2771177867784 93.17134384119916 H 0.0 **** 0.06
7944 H 28.22427509160667 83.33664482533555 93.31752575610122 H 0.0 **** 0.06
7945 H 28.15290175514619 85.07700533711338 92.94867763075229 H 0.0 **** 0.06
7946 C 109.27798844029242 93.29014023780422 89.03261287772665 C 0.0 **** -0.24
7947 H 109.22713934370935 93.18626449983091 90.11636127005835 H 0.0 **** 0.06
7948 H 108.76132783517177 94.2016740167679 88.73078275040547 H 0.0 **** 0.06
7949 H 108.8006762819537 92.42953754459745 88.56283680632595 H 0.0 **** 0.06
7950 H 110.32109612788037 93.34206349882461 88.72147996922934 H 0.0 **** 0.06
7951 C 36.977252572879905 57.94464403786714 95.55700880229821 C 0.0 **** -0.24
7952 H 35.922566523990895 58.18794909166129 95.68732535432864 H 0.0 **** 0.06
7953 H 37.54166065069501 58.861030608894005 95.38625890236398 H 0.0 **** 0.06
7954 H 37.09296772089721 57.280432052244876 94.70091546852777 H 0.0 **** 0.06
7955 H 37.34958952709965 57.44897631544619 96.45363754395186 H 0.0 **** 0.06
7956 C 93.71194122280164 42.135094320797805 47.88324290344511 C 0.0 **** -0.24
7957 H 94.194016747863 42.945154961747704 47.33548349818412 H 0.0 **** 0.06
7958 H 92.73637585861002 42.466356445515856 48.23962336788128 H 0.0 **** 0.06
7959 H 94.33317832816755 41.853188000671764 48.73424863857457 H 0.0 **** 0.06
7960 H 93.58692922069321 41.27510199322103 47.22509504702725 H 0.0 **** 0.06
7961 C 9.697399970140204 91.12693601514829 92.29495372074174 C 0.0 **** -0.24
7962 H 9.42897259023822 90.50923461567535 93.15147229214327 H 0.0 **** 0.06
7963 H 10.466170753724288 90.6212088113499 91.70962993053487 H 0.0 **** 0.06
7964 H 10.078643029143343 92.08623602899118 92.64438408651426 H 0.0 **** 0.06
7965 H 8.817161881025934 91.28967274177347 91.67383376720142 H 0.0 **** 0.06
7966 C 36.37010964139307 68.71946686546664 88.3155805223567 C 0.0 **** -0.24
7967 H 37.18962426300078 68.66292009776674 87.59923100601532 H 0.0 **** 0.06
7968 H 35.869120790609486 69.6834140996574 88.2181876084999 H 0.0 **** 0.06
7969 H 36.76324531441321 68.61391478935386 89.32579059200913 H 0.0 **** 0.06
7970 H 35.6578613021224 67.91807039346384 88.11677800305944 H 0.0 **** 0.06
7971 C 6.569089801855796 90.35146381568993 1.4044441998975117 C 0.0 **** -0.24
7972 H 7.392419478909403 90.41313254926024 0.6918077704349486 H 0.0 **** 0.06
7973 H 5.630284251569606 90.5644815694121 0.8932094548562333 H 0.0 **** 0.06
7974 H 6.723588119856174 91.08152183009199 2.200148958398273 H 0.0 **** 0.06
7975 H 6.532742604550776 89.35020280981004 1.8313031377473408 H 0.0 **** 0.06
7976 C 76.89852906974784 85.63506368765795 92.60937835967306 C 0.0 **** -0.24
7977 H 76.33288809901242 86.30039428953299 91.95699206388116 H 0.0 **** 0.06
7978 H 76.2702834802704 85.32396304804834 93.44406348903257 H 0.0 **** 0.06
7979 H 77.77555466865908 86.1606066879724 92.98982567168312 H 0.0 **** 0.06
7980 H 77.21661968423828 84.75780490323629 92.04622317251741 H 0.0 **** 0.06
7981 C 17.227288571806 20.229693834620548 6.809725817244981 C 0.0 **** -0.24
7982 H 16.47967054488386 19.531447898569695 6.434272423281911 H 0.0 **** 0.06
7983 H 18.086201507076453 19.6739480751865 7.186651064043986 H 0.0 **** 0.06
7984 H 16.79680412743677 20.824564137653567 7.614959215873213 H 0.0 **** 0.06
7985 H 17.547635289656704 20.88914115272462 6.0022757059757055 H 0.0 **** 0.06
7986 C 6.301250992115124 26.5624803889271 92.11431054524189 C 0.0 **** -0.24
7987 H 5.596075528165507 26.667375965711244 91.29055706184465 H 0.0 **** 0.06
7988 H 6.2938736486591065 25.5312809057001 92.47065689523538 H 0.0 **** 0.06
7989 H 6.013004835491934 27.22920275956909 92.92648895813181 H 0.0 **** 0.06
7990 H 7.302800759007333 26.819758889170913 91.76990349456511 H 0.0 **** 0.06
7991 C 17.641158695241444 84.23917505405328 112.48249399678238 C 0.0 **** -0.24
7992 H 18.35202373536555 84.25251479031903 111.65566668995824 H 0.0 **** 0.06
7993 H 17.831308983030453 85.0890032606772 113.13854530175476 H 0.0 **** 0.06
7994 H 17.75590971045881 83.31280074382363 113.04470854033221 H 0.0 **** 0.06
7995 H 16.627038586994644 84.30245052372376 112.08954369478775 H 0.0 **** 0.06
7996 C 93.32550577825066 66.22147540589015 30.417200064527805 C 0.0 **** -0.24
7997 H 92.76432823700304 65.37486112735462 30.813528788122426 H 0.0 **** 0.06
7998 H 92.64535058937884 67.05505199487857 30.238014512112443 H 0.0 **** 0.06
7999 H 93.80348466989972 65.93447761596767 29.480841261032992 H 0.0 **** 0.06
8000 H 94.08571735324153 66.52138726247551 31.13817967955748 H 0.0 **** 0.06
8001 C 32.71157133587707 10.653804791528437 92.50652701884195 C 0.0 **** -0.24
8002 H 33.38184805821368 10.481418442926422 93.34874104384889 H 0.0 **** 0.06
8003 H 32.78762555066072 9.820737780532344 91.80662517648204 H 0.0 **** 0.06
8004 H 32.9915644824203 11.578399419833222 92.00284762046988 H 0.0 **** 0.06
8005 H 31.686407183452445 10.731401371747005 92.86801089891148 H 0.0 **** 0.06
8006 C 110.63590367375862 100.61409928036 63.05012573563192 C 0.0 **** -0.24
8007 H 110.98964197896038 101.41613369011068 62.40149374131312 H 0.0 **** 0.06
8008 H 109.65913894803577 100.27352718338662 62.707091209673194 H 0.0 **** 0.06
8009 H 110.55462450456024 100.9845026176246 64.07181914812753 H 0.0 **** 0.06
8010 H 111.34232510260067 99.78504920956783 63.01883530377228 H 0.0 **** 0.06
8011 C 64.51385699046745 46.13172723828457 35.32395974924052 C 0.0 **** -0.24
8012 H 65.40596104762 45.50657766354948 35.30499428593632 H 0.0 **** 0.06
8013 H 64.4251710850449 46.66732489749586 34.37944067792521 H 0.0 **** 0.06
8014 H 64.58987158177877 46.84711682545469 36.14264949131616 H 0.0 **** 0.06
8015 H 63.63349143213213 45.50479913481104 35.47046950466296 H 0.0 **** 0.06
8016 C 31.271837737103674 77.54662830609851 37.69018209931892 C 0.0 **** -0.24
8017 H 31.773939730794993 77.34285527876824 38.636015878731115 H 0.0 **** 0.06
8018 H 31.603551923870228 78.51005206088445 37.30334137852492 H 0.0 **** 0.06
8019 H 30.193954227628225 77.56944946427842 37.84879701340162 H 0.0 **** 0.06
8020 H 31.51653968659999 76.76269662544962 36.97325708015852 H 0.0 **** 0.06
8021 C 52.36024636780693 14.84352467585451 26.71041228052067 C 0.0 **** -0.24
8022 H 52.57362887122598 13.988792327727907 26.067741316476088 H 0.0 **** 0.06
8023 H 52.07672012516613 15.698855399550752 26.096445131831246 H 0.0 **** 0.06
8024 H 53.248796429580885 15.09246427582346 27.29102943638827 H 0.0 **** 0.06
8025 H 51.54253256109075 14.594671868482564 27.38665912037328 H 0.0 **** 0.06
8026 C 42.49098693618288 58.404204746600925 42.11993035521718 C 0.0 **** -0.24
8027 H 42.766144786774476 57.39590219074765 42.42919965356576 H 0.0 **** 0.06
8028 H 41.755691610755434 58.35032266355435 41.31651517716679 H 0.0 **** 0.06
8029 H 43.377709698597585 58.93095359357281 41.76653282475962 H 0.0 **** 0.06
8030 H 42.06489639279101 58.94014203005173 42.96818354785417 H 0.0 **** 0.06
8031 C 103.98690194335131 47.4799893536385 80.59965035153806 C 0.0 **** -0.24
8032 H 104.32812194596445 46.782965817497484 79.83355861414418 H 0.0 **** 0.06
8033 H 104.46756123839498 48.44695917634101 80.44980570762979 H 0.0 **** 0.06
8034 H 104.24651966285228 47.091633229597306 81.58429421105649 H 0.0 **** 0.06
8035 H 102.9053401102037 47.59644477372625 80.52866766738421 H 0.0 **** 0.06
8036 C 16.897847205413882 82.1286543810053 35.174443465546545 C 0.0 **** -0.24
8037 H 16.725611458890228 81.14011613896707 35.60009400114028 H 0.0 **** 0.06
8038 H 16.351840518808274 82.87359999137342 35.754278090253194 H 0.0 **** 0.06
8039 H 16.549876842500424 82.14448739996442 34.141512034184814 H 0.0 **** 0.06
8040 H 17.96311327168422 82.35627515964873 35.20218039889113 H 0.0 **** 0.06
8041 C 101.92172475313814 35.653188532888095 68.8525141328638 C 0.0 **** -0.24
8042 H 101.98256926768909 36.24900040941017 67.94204638680256 H 0.0 **** 0.06
8043 H 100.90819815474921 35.6993826617647 69.24948801313798 H 0.0 **** 0.06
8044 H 102.62101570857624 36.04514254651815 69.59130951759829 H 0.0 **** 0.06
8045 H 102.1763440281444 34.61743191473744 68.62608823504337 H 0.0 **** 0.06
8046 C 58.344072193684354 73.10933377817327 39.940136763496554 C 0.0 **** -0.24
8047 H 58.493267146610236 72.44211675345659 39.090635878486694 H 0.0 **** 0.06
8048 H 59.284149663175555 73.22538572223982 40.47920788201779 H 0.0 **** 0.06
8049 H 57.591966379488724 72.68499573358895 40.60660998916893 H 0.0 **** 0.06
8050 H 58.00611536591677 74.08191041046703 39.582747267129804 H 0.0 **** 0.06
8051 C 67.3501759478641 29.60487814889845 106.94502681054715 C 0.0 **** -0.24
8052 H 67.7847561982158 28.72640710577764 107.42239149475284 H 0.0 **** 0.06
8053 H 67.0323398251266 29.348530401571878 105.93463956119473 H 0.0 **** 0.06
8054 H 68.09361186519271 30.400490594156622 106.9027393606521 H 0.0 **** 0.06
8055 H 66.48923273546364 29.943083297628988 107.52218492317891 H 0.0 **** 0.06
8056 C 56.79184119112517 93.75498341283281 4.0025686218470895 C 0.0 **** -0.24
8057 H 56.3959907344823 93.19209431972143 4.847839980738229 H 0.0 **** 0.06
8058 H 55.99749081726898 93.92279696951829 3.2748059389729747 H 0.0 **** 0.06
8059 H 57.59879897552182 93.19035567503596 3.536767187109149 H 0.0 **** 0.06
8060 H 57.17380130972555 94.71385521691406 4.351675582385525 H 0.0 **** 0.06
8061 C 93.55911601324914 64.29881511568325 110.84988572564274 C 0.0 **** -0.24
8062 H 93.3524955482423 65.36870945228029 110.83316879614422 H 0.0 **** 0.06
8063 H 93.1573724184081 63.865927027661876 111.7663438043457 H 0.0 **** 0.06
8064 H 94.63603568247248 64.13600680328483 110.81184828542888 H 0.0 **** 0.06
8065 H 93.08986542697511 63.8246596278537 109.98746419914576 H 0.0 **** 0.06
8066 C 73.31506653635432 6.092307140141784 50.66799953520433 C 0.0 **** -0.24
8067 H 74.23825257707139 5.839160838366013 51.18995538871657 H 0.0 **** 0.06
8068 H 72.52093741385116 6.258912129954524 51.39689060619438 H 0.0 **** 0.06
8069 H 73.03588172404767 5.2727197303772755 50.00650980821876 H 0.0 **** 0.06
8070 H 73.46617556638614 6.998006840082496 50.08144480500892 H 0.0 **** 0.06
8071 C 112.5200109181553 103.53067085452213 30.371346451980315 C 0.0 **** -0.24
8072 H 111.90669670844522 103.16256127115267 31.192755793517165 H 0.0 **** 0.06
8073 H 112.1990711379428 104.53699386678846 30.10038501704682 H 0.0 **** 0.06
8074 H 112.41030628481244 102.87000339627568 29.51205155220549 H 0.0 **** 0.06
8075 H 113.56454888234629 103.55338726202666 30.680965182490155 H 0.0 **** 0.06
8076 C 2.848271703726283 50.25300478140005 61.351789440695306 C 0.0 **** -0.24
8077 H 3.7873736555736173 50.27129362306806 60.798326290668165 H 0.0 **** 0.06
8078 H 2.047924622208768 50.63848171208741 60.72056012727318 H 0.0 **** 0.06
8079 H 2.940716085286482 50.875675135648265 62.24239436540055 H 0.0 **** 0.06
8080 H 2.6196521909122623 49.2286517132527 61.6457967439893 H 0.0 **** 0.06
8081 C 53.31011281575991 104.85248968694646 85.4405558856227 C 0.0 **** -0.24
8082 H 52.83225282006782 105.52950149362508 84.73212857528068 H 0.0 **** 0.06
8083 H 52.61074389346169 104.60975799916318 86.23976659162 H 0.0 **** 0.06
8084 H 54.19306161498213 105.33281856976222 85.862875674512 H 0.0 **** 0.06
8085 H 53.606043117826914 103.93787347543602 84.92564240181 H 0.0 **** 0.06
8086 C 101.10675569519782 32.66665616016766 75.13422355899576 C 0.0 **** -0.24
8087 H 100.18563265800543 32.664208617338346 74.55228911772355 H 0.0 **** 0.06
8088 H 101.49218496289842 33.68466119540574 75.201257059498 H 0.0 **** 0.06
8089 H 101.84519831182394 32.03026648712529 74.64739296237855 H 0.0 **** 0.06
8090 H 100.9049934630741 32.28758143298916 76.1360891910818 H 0.0 **** 0.06
8091 C 64.98320710519272 2.9460725107555845 29.230904850452873 C 0.0 **** -0.24
8092 H 64.10240107306797 2.982477584907258 29.87137011166709 H 0.0 **** 0.06
8093 H 64.97899696132447 3.803694396840797 28.558113375050368 H 0.0 **** 0.06
8094 H 64.9701009620627 2.025138923112138 28.648147667593435 H 0.0 **** 0.06
8095 H 65.88111716861607 2.9725549632481147 29.848173495032995 H 0.0 **** 0.06
8096 C 63.318276485563786 78.60792461742213 91.28718235236116 C 0.0 **** -0.24
8097 H 63.50289170283068 77.68899933568088 90.72931764694553 H 0.0 **** 0.06
8098 H 62.24812817883375 78.71569411963765 91.46429455197011 H 0.0 **** 0.06
8099 H 63.67964958780598 79.4599769968026 90.71189756952853 H 0.0 **** 0.06
8100 H 63.842302764503074 78.56419123131198 92.24182847851114 H 0.0 **** 0.06
8101 C 98.8001560432835 84.88495350617416 79.79641861219312 C 0.0 **** -0.24
8102 H 99.21638253422822 85.0137104751044 80.79561656431343 H 0.0 **** 0.06
8103 H 98.01523488210023 85.6230986520942 79.63280662374592 H 0.0 **** 0.06
8104 H 98.38290375030255 83.88200449515662 79.70416234661565 H 0.0 **** 0.06
8105 H 99.58789855002232 85.02003405744878 79.05550609598083 H 0.0 **** 0.06
8106 C 34.74294175024844 94.46095941519732 20.724882914050635 C 0.0 **** -0.24
8107 H 34.072911602907936 95.2927464552769 20.94287907079182 H 0.0 **** 0.06
8108 H 35.74326277698285 94.69486732280552 21.090541741820914 H 0.0 **** 0.06
8109 H 34.777825738915766 94.29573329212576 19.64817970123097 H 0.0 **** 0.06
8110 H 34.37658858630443 93.56084055321512 21.218630612454486 H 0.0 **** 0.06
8111 C 104.83879736217489 34.96412849329966 8.330800522353476 C 0.0 **** -0.24
8112 H 104.54352422192645 34.65548404308752 9.333411983284861 H 0.0 **** 0.06
8113 H 105.41370914400676 34.166236565025805 7.859183742253819 H 0.0 **** 0.06
8114 H 105.45042614812837 35.86449661001882 8.393121486538549 H 0.0 **** 0.06
8115 H 103.9482108401676 35.17075352791377 7.736912354018147 H 0.0 **** 0.06
8116 C 71.80514538282739 42.11898351307539 81.81394378884536 C 0.0 **** -0.24
8117 H 71.53780481193587 41.170641846857336 81.34515744764181 H 0.0 **** 0.06
8118 H 72.5593047132223 42.622105663728945 81.20860899895638 H 0.0 **** 0.06
8119 H 72.20333066389554 41.93144614955136 82.81110355834778 H 0.0 **** 0.06
8120 H 70.91890766942012 42.7487126852713 81.88908530526658 H 0.0 **** 0.06
8121 C 11.795124832905174 105.5452877222217 36.63679012269705 C 0.0 **** -0.24
8122 H 12.304200902080197 104.58361470763441 36.571368665435955 H 0.0 **** 0.06
8123 H 11.298424903110075 105.75885190753581 35.690824026350754 H 0.0 **** 0.06
8124 H 12.523885405998811 106.32783088910617 36.84937102538697 H 0.0 **** 0.06
8125 H 11.055388675034834 105.51155378947419 37.43719307040641 H 0.0 **** 0.06
8126 C 0.5246836250784037 74.19110869600743 110.74415614403104 C 0.0 **** -0.24
8127 H 0.4801263704061709 73.71100669308589 111.7223796263689 H 0.0 **** 0.06
8128 H 0.6587194912596335 75.26522542079377 110.87173368988645 H 0.0 **** 0.06
8129 H -0.40335956792938443 74.00142365664487 110.20435447915759 H 0.0 **** 0.06
8130 H 1.3637251599261226 73.78384400324455 110.1796260847069 H 0.0 **** 0.06
8131 C 46.95140556988821 29.495222955642916 111.54428973969794 C 0.0 **** -0.24
8132 H 47.734448840529154 28.975647807377726 112.09601182357582 H 0.0 **** 0.06
8133 H 47.31432352385505 29.744934561950203 110.54635979942428 H 0.0 **** 0.06
8134 H 46.68098356551286 30.410289187356312 112.07199625738757 H 0.0 **** 0.06
8135 H 46.07611186011647 28.85130621825175 111.46225613487645 H 0.0 **** 0.06
8136 C 49.5272570597167 11.050421565448886 52.273138185306316 C 0.0 **** -0.24
8137 H 49.87438470433369 12.063257109615847 52.07269902209073 H 0.0 **** 0.06
8138 H 49.66118146265359 10.822633408845078 53.3313315912822 H 0.0 **** 0.06
8139 H 50.10158959166273 10.344114832945152 51.673078711966674 H 0.0 **** 0.06
8140 H 48.470622361014875 10.970491636747127 52.0152917572046 H 0.0 **** 0.06
8141 C 94.80114340791741 84.89037149697413 40.04679338173716 C 0.0 **** -0.24
8142 H 94.11188323358442 84.06942856951991 40.24228625365413 H 0.0 **** 0.06
8143 H 95.7903165816115 84.48919838895807 39.82239629302086 H 0.0 **** 0.06
8144 H 94.85984878536863 85.53219770371012 40.926296215529874 H 0.0 **** 0.06
8145 H 94.44279865157219 85.4706190066704 39.197155700570164 H 0.0 **** 0.06
8146 C 18.18149993637385 100.06210354448604 50.071827449983836 C 0.0 **** -0.24
8147 H 17.286075999117315 99.87537256933672 49.47919865256254 H 0.0 **** 0.06
8148 H 18.610954727017752 101.02353486214156 49.78879593494676 H 0.0 **** 0.06
8149 H 18.909372372427764 99.2711777326478 49.89014783681449 H 0.0 **** 0.06
8150 H 17.91990301324704 100.07805482970701 51.13052054825487 H 0.0 **** 0.06
8151 C 12.85157334080272 105.63825612110625 12.972477564902874 C 0.0 **** -0.24
8152 H 13.590319649047718 106.37378757439207 12.654063109932054 H 0.0 **** 0.06
8153 H 11.901872240557616 105.83838181217462 12.476240801758536 H 0.0 **** 0.06
8154 H 12.717280767226455 105.70095082681891 14.052442045247403 H 0.0 **** 0.06
8155 H 13.197579952007839 104.63929523777327 12.70693477864529 H 0.0 **** 0.06
8156 C 66.79701550842844 97.1258068477319 72.4923586527812 C 0.0 **** -0.24
8157 H 66.70712024584574 96.05607399025695 72.68337407137304 H 0.0 **** 0.06
8158 H 66.3141381738237 97.6805225833366 73.29678473094606 H 0.0 **** 0.06
8159 H 66.31759739654544 97.36621755883036 71.54432212509764 H 0.0 **** 0.06
8160 H 67.85185340339561 97.39779020699538 72.44528954341502 H 0.0 **** 0.06
8161 C 62.427341788139465 47.204890147485884 105.61514195485981 C 0.0 **** -0.24
8162 H 61.35730750674255 47.013829119206804 105.69448104413533 H 0.0 **** 0.06
8163 H 62.72649373962583 47.16738574343381 104.56757194260109 H 0.0 **** 0.06
8164 H 62.973753430284 46.44640303451868 106.17673706880296 H 0.0 **** 0.06
8165 H 62.652388370987474 48.190478702935025 106.02250250436873 H 0.0 **** 0.06
8166 C 17.659651628281296 59.78108950539204 104.7028808139417 C 0.0 **** -0.24
8167 H 18.299851095528965 60.56995988379203 105.09965737960368 H 0.0 **** 0.06
8168 H 16.685014881181388 60.199049637963405 104.45003114847611 H 0.0 **** 0.06
8169 H 17.537549600467116 59.00113788390778 105.45416499960652 H 0.0 **** 0.06
8170 H 18.11695246286567 59.35677389558486 103.80963194570253 H 0.0 **** 0.06
8171 C 36.93203517069685 47.38710908337906 57.52802238560756 C 0.0 **** -0.24
8172 H 37.70600671926212 46.65629430874475 57.294496858981425 H 0.0 **** 0.06
8173 H 35.968944925691915 46.88175177734266 57.611399023604775 H 0.0 **** 0.06
8174 H 36.88399750506932 48.1320779315887 56.73357150189318 H 0.0 **** 0.06
8175 H 37.1682695023315 47.87725237020234 58.47245940484411 H 0.0 **** 0.06
8176 C 13.242859832480022 33.77934865410083 109.90700363720313 C 0.0 **** -0.24
8177 H 14.029076393067974 33.024490168439456 109.89120548642987 H 0.0 **** 0.06
8178 H 13.456498473830973 34.50791700232617 110.68960195600113 H 0.0 **** 0.06
8179 H 12.284451614259304 33.3003296323883 110.10687320799752 H 0.0 **** 0.06
8180 H 13.204229796396017 34.28291839739512 108.9420774673228 H 0.0 **** 0.06
8181 C 76.04977046154315 98.8461729846278 74.4452464865887 C 0.0 **** -0.24
8182 H 75.89538007774763 98.68542104110654 75.51277816281862 H 0.0 **** 0.06
8183 H 77.10437357882174 99.04913915606042 74.25774605254833 H 0.0 **** 0.06
8184 H 75.45173642023843 99.69483548099046 74.11609373282414 H 0.0 **** 0.06
8185 H 75.74840273408921 97.95351957425456 73.89704873438376 H 0.0 **** 0.06
8186 C 59.583039443405234 36.693138337209035 29.574075498664826 C 0.0 **** -0.24
8187 H 59.41761230764242 37.66324197544654 30.043888488375273 H 0.0 **** 0.06
8188 H 58.7352542331673 36.040805624444914 29.779768407926525 H 0.0 **** 0.06
8189 H 60.49190245536733 36.24565766361704 29.975858324508437 H 0.0 **** 0.06
8190 H 59.68842673246143 36.825046052553716 28.496483574582925 H 0.0 **** 0.06
8191 C 104.4202301838387 54.391043981202955 29.17723578180896 C 0.0 **** -0.24
8192 H 104.22755939138301 53.88777539598689 30.124403694064767 H 0.0 **** 0.06
8193 H 103.56585495796492 55.01812035862628 28.918978776619056 H 0.0 **** 0.06
8194 H 104.57441433831985 53.64782474949189 28.395569129188914 H 0.0 **** 0.06
8195 H 105.31125521535131 55.01154847843537 29.270648456120092 H 0.0 **** 0.06
8196 C 2.7278866286844448 76.60362509192478 82.59986017232634 C 0.0 **** -0.24
8197 H 2.6802494286988576 75.55819960281275 82.29504443577315 H 0.0 **** 0.06
8198 H 1.7167162909962883 76.99163780129143 82.72553083525887 H 0.0 **** 0.06
8199 H 3.2468731767599053 77.181870173287 81.83513015294272 H 0.0 **** 0.06
8200 H 3.2672995042383377 76.681879910486 83.54374751608549 H 0.0 **** 0.06
8201 C 41.725555200460704 75.14735990406729 36.71240022064566 C 0.0 **** -0.24
8202 H 41.507327048491284 75.40468574714572 35.675950380112624 H 0.0 **** 0.06
8203 H 40.839682281731235 74.70975320180506 37.17346201477983 H 0.0 **** 0.06
8204 H 42.01083332621909 76.04812940207765 37.25796160381586 H 0.0 **** 0.06
8205 H 42.54538625999719 74.42974449810407 36.744157939358104 H 0.0 **** 0.06
8206 C 79.4206962100038 102.99388024121939 62.38631590721445 C 0.0 **** -0.24
8207 H 78.68296405859485 102.19264524306203 62.34923340750822 H 0.0 **** 0.06
8208 H 79.13107344955031 103.78639881717487 61.695311978336946 H 0.0 **** 0.06
8209 H 80.39658662370718 102.60139510212818 62.10104640700379 H 0.0 **** 0.06
8210 H 79.47122310393641 103.3936755360439 63.39860247179166 H 0.0 **** 0.06
8211 C 76.98124585850775 81.8411925939213 10.113107245603373 C 0.0 **** -0.24
8212 H 76.61426460815716 82.13445314319054 11.096922486550714 H 0.0 **** 0.06
8213 H 77.70967351883328 82.57279647843575 9.76454412835384 H 0.0 **** 0.06
8214 H 76.14721514596019 81.79583967955864 9.412881377427242 H 0.0 **** 0.06
8215 H 77.45297912318534 80.86072299488438 10.179616582750477 H 0.0 **** 0.06
8216 C 37.00804756969678 90.42783479579211 64.49389760233967 C 0.0 **** -0.24
8217 H 36.37396865091277 91.04343816562255 65.1327229801276 H 0.0 **** 0.06
8218 H 37.98194415810006 90.90520081451211 64.38095706033107 H 0.0 **** 0.06
8219 H 36.54101104524198 90.32053060850953 63.51445994063523 H 0.0 **** 0.06
8220 H 37.13407187162394 89.44464859855086 64.94589217616056 H 0.0 **** 0.06
8221 C 65.35065661037169 44.30838846263262 16.665171254482146 C 0.0 **** -0.24
8222 H 65.65538691813526 45.3021135720181 16.33735389699973 H 0.0 **** 0.06
8223 H 66.05921048849999 43.56969735852519 16.289917649086732 H 0.0 **** 0.06
8224 H 64.3556471855481 44.08791507994552 16.278156861398713 H 0.0 **** 0.06
8225 H 65.33336738540035 44.273841156584666 17.754242384275926 H 0.0 **** 0.06
8226 C 3.4495313062928687 32.365098322306736 103.87676155437887 C 0.0 **** -0.24
8227 H 4.17195988504173 32.47603034776561 104.68478344000309 H 0.0 **** 0.06
8228 H 3.9540603933373575 32.48739576996074 102.91873750471456 H 0.0 **** 0.06
8229 H 2.672603151530751 33.123018966246605 103.97870933263306 H 0.0 **** 0.06
8230 H 2.9974810373933565 31.374101037089332 103.92619199263814 H 0.0 **** 0.06
8231 C 104.07648898096738 16.88237876406129 58.79330637424818 C 0.0 **** -0.24
8232 H 104.42955005312592 16.35341925163348 57.90789453766275 H 0.0 **** 0.06
8233 H 104.89668983822429 16.98874359543209 59.50346373784753 H 0.0 **** 0.06
8234 H 103.26600797134262 16.318509210644972 59.255096421892425 H 0.0 **** 0.06
8235 H 103.71430665016948 17.869946607583547 58.50611976062678 H 0.0 **** 0.06
8236 C 32.25756159433365 46.24712318205684 94.93761621983549 C 0.0 **** -0.24
8237 H 32.756795570269446 45.87952912519279 94.04141177632869 H 0.0 **** 0.06
8238 H 31.19742775665827 46.39451979775973 94.72855177400314 H 0.0 **** 0.06
8239 H 32.703839233597876 47.19469812794665 95.23897210172393 H 0.0 **** 0.06
8240 H 32.371284105090126 45.520156906609316 95.741382714405 H 0.0 **** 0.06
8241 C 11.05956260459024 109.54176204211373 1.79404725096623 C 0.0 **** -0.24
8242 H 12.109180521183902 109.26049198630338 1.8780577342040061 H 0.0 **** 0.06
8243 H 10.97589526888737 110.62932162795819 1.7738622941757711 H 0.0 **** 0.06
8244 H 10.510621653291281 109.15160104006269 2.6508007656988326 H 0.0 **** 0.06
8245 H 10.644452240727844 109.12709697943585 0.8755301569793659 H 0.0 **** 0.06
8246 C 61.63915170411527 45.359246536930016 74.17380797513778 C 0.0 **** -0.24
8247 H 61.17180685320822 44.39344408139377 74.36614050270819 H 0.0 **** 0.06
8248 H 60.87002685373201 46.09007382531249 73.9215721810441 H 0.0 **** 0.06
8249 H 62.33904620360932 45.26604967702765 73.34403067614326 H 0.0 **** 0.06
8250 H 62.17286335031874 45.687900102962445 75.0658484058446 H 0.0 **** 0.06
8251 C 57.34869005376476 99.40165007905966 23.977805429093877 C 0.0 **** -0.24
8252 H 56.45522633587857 99.42693864874857 23.3544945718063 H 0.0 **** 0.06
8253 H 57.91568885545126 98.49427367368523 23.76226659826895 H 0.0 **** 0.06
8254 H 57.058761749317895 99.40769733908547 25.028118882528133 H 0.0 **** 0.06
8255 H 57.96498149188039 100.27480521438656 23.76552656566932 H 0.0 **** 0.06
8256 C 96.22575167179679 76.97449604707862 56.96220910781699 C 0.0 **** -0.24
8257 H 97.30517510844635 76.94361212546644 56.810424138960514 H 0.0 **** 0.06
8258 H 95.79800348066493 76.00205872223461 56.71616117971507 H 0.0 **** 0.06
8259 H 95.79015948142626 77.73757686039428 56.31717228258526 H 0.0 **** 0.06
8260 H 96.0123319726103 77.21350169335611 58.003239667938885 H 0.0 **** 0.06
8261 C 55.30226884556126 3.803407688956149 99.78913358315984 C 0.0 **** -0.24
8262 H 55.028676456152425 4.81291140657749 100.09614635849445 H 0.0 **** 0.06
8263 H 55.331849158956004 3.7503014730708113 98.70093593963486 H 0.0 **** 0.06
8264 H 54.56358649519325 3.0962512224978873 100.16866434769523 H 0.0 **** 0.06
8265 H 56.28403123959549 3.5552586471588477 100.19342195643964 H 0.0 **** 0.06
8266 C 70.94315465830778 20.493414634306294 67.17422511718476 C 0.0 **** -0.24
8267 H 70.85565667711003 21.213889977796985 67.98757177274166 H 0.0 **** 0.06
8268 H 70.98375519463195 21.023495464319073 66.22196550172114 H 0.0 **** 0.06
8269 H 70.07870787249794 19.82927842652375 67.18438687583946 H 0.0 **** 0.06
8270 H 71.85352582185521 19.907950794910217 67.30404362016134 H 0.0 **** 0.06
8271 C 111.64125865059475 55.53112643822283 89.9339557296426 C 0.0 **** -0.24
8272 H 111.32062797839757 54.654768464931465 90.49716977382988 H 0.0 **** 0.06
8273 H 112.6702009393523 55.77780810112779 90.20047862816739 H 0.0 **** 0.06
8274 H 110.99224223727742 56.373391275209485 90.17156248850176 H 0.0 **** 0.06
8275 H 111.58343033887985 55.317649936772 88.86636728314414 H 0.0 **** 0.06
8276 C 42.81401635200683 15.570962212531956 34.4587679089104 C 0.0 **** -0.24
8277 H 41.84066790453964 15.295090206924034 34.0549068662973 H 0.0 **** 0.06
8278 H 43.44832223498199 14.685807018685097 34.51406496713372 H 0.0 **** 0.06
8279 H 42.68710067449743 15.989767231272491 35.45739856864134 H 0.0 **** 0.06
8280 H 43.27998418041065 16.312405207370222 33.80988144156731 H 0.0 **** 0.06
8281 C 71.3603773044409 55.75472398251715 19.6893657361108 C 0.0 **** -0.24
8282 H 72.04895425135436 56.53482615419188 19.362840318283276 H 0.0 **** 0.06
8283 H 71.90046192199327 55.02407037632343 20.29316488959526 H 0.0 **** 0.06
8284 H 70.931813944081 55.25972130147553 18.817871509538975 H 0.0 **** 0.06
8285 H 70.56347333134022 56.20017190640649 20.28447292628431 H 0.0 **** 0.06
8286 C 43.32398887681103 65.31264538969594 57.75005230212236 C 0.0 **** -0.24
8287 H 42.88943506082751 64.80093245689966 58.60861460556709 H 0.0 **** 0.06
8288 H 42.5393085597924 65.54622373406954 57.03031390635996 H 0.0 **** 0.06
8289 H 44.06734806535121 64.66771820875829 57.280517971776604 H 0.0 **** 0.06
8290 H 43.800694634723925 66.2360552463341 58.080328396591675 H 0.0 **** 0.06
8291 C 22.564713652936405 65.31992159400491 95.24100123815748 C 0.0 **** -0.24
8292 H 23.537372610189493 65.80495065836323 95.16215507694963 H 0.0 **** 0.06
8293 H 22.618655616851527 64.3251635539628 94.79746639519911 H 0.0 **** 0.06
8294 H 21.819024169620064 65.91439194254599 94.71230412449398 H 0.0 **** 0.06
8295 H 22.284716877718637 65.23535934699646 96.29030974216187 H 0.0 **** 0.06
8296 C 47.82927549678797 76.29286054625464 45.749940981684446 C 0.0 **** -0.24
8297 H 46.79322818688874 76.13947373921147 46.05119141643807 H 0.0 **** 0.06
8298 H 48.04444929919994 75.68777980639368 44.8682074486198 H 0.0 **** 0.06
8299 H 48.491788251053976 75.998776524107 46.563962986628674 H 0.0 **** 0.06
8300 H 47.987586471198554 77.34614094851284 45.5151911094552 H 0.0 **** 0.06
8301 C 111.16528924276436 19.701769708002814 10.399384733387137 C 0.0 **** -0.24
8302 H 112.03149041695244 19.70981196790828 11.061725500783638 H 0.0 **** 0.06
8303 H 110.55371778326231 20.583215048844835 10.59174596421559 H 0.0 **** 0.06
8304 H 110.57655767515877 18.80324706105634 10.582309703295692 H 0.0 **** 0.06
8305 H 111.50134078392183 19.711485950512582 9.362615069738055 H 0.0 **** 0.06
8306 C 21.205312397383366 91.28539596621528 50.97590553260298 C 0.0 **** -0.24
8307 H 21.66891751366343 90.75781641440571 50.14292087043735 H 0.0 **** 0.06
8308 H 21.265064779121005 92.36004557117633 50.8036404172104 H 0.0 **** 0.06
8309 H 21.727984911334417 91.03572389465043 51.8999081070922 H 0.0 **** 0.06
8310 H 20.159838004847884 90.98744824462545 51.05777653828373 H 0.0 **** 0.06
8311 C 45.676624605635794 80.61499274928656 109.9006977576914 C 0.0 **** -0.24
8312 H 44.77306142872058 81.22307764365087 109.85046060858626 H 0.0 **** 0.06
8313 H 45.878460160081914 80.34887366519268 110.93884008871673 H 0.0 **** 0.06
8314 H 46.517355076887696 81.18012009560823 109.49925697221414 H 0.0 **** 0.06
8315 H 45.535948113874326 79.7065397170972 109.31364180300214 H 0.0 **** 0.06
8316 C 87.88103374686617 28.195021477598118 17.208156534754693 C 0.0 **** -0.24
8317 H 88.92775908499118 28.472031661611766 17.08157916508128 H 0.0 **** 0.06
8318 H 87.31754778203495 28.489558817482305 16.322637065634694 H 0.0 **** 0.06
8319 H 87.47478242660955 28.70202667950781 18.083530166466034 H 0.0 **** 0.06
8320 H 87.80525701808813 27.116892495662114 17.345474088636138 H 0.0 **** 0.06
8321 C 6.726950894191937 5.908452243211583 76.9628843323813 C 0.0 **** -0.24
8322 H 7.063677280784898 6.819154111663792 76.46625679513511 H 0.0 **** 0.06
8323 H 7.20814750149766 5.828263893246541 77.93739396170707 H 0.0 **** 0.06
8324 H 6.991481810184187 5.044031290398342 76.35424554428954 H 0.0 **** 0.06
8325 H 5.64543493119219 5.944389560339658 77.0936517548655 H 0.0 **** 0.06
8326 C 94.05397324608234 57.860175400889375 23.04014100344085 C 0.0 **** -0.24
8327 H 93.95757525651618 56.77569520728301 23.084901329205024 H 0.0 **** 0.06
8328 H 93.93683545040636 58.19274764241089 22.008484635648074 H 0.0 **** 0.06
8329 H 95.03680128656805 58.15366282915505 23.406904519673418 H 0.0 **** 0.06
8330 H 93.28269047388864 58.31895856523445 23.659321364472362 H 0.0 **** 0.06
8331 C 61.4644819308981 72.03299745434285 86.58761674811655 C 0.0 **** -0.24
8332 H 61.287085213397404 71.59665973843971 87.57118792417066 H 0.0 **** 0.06
8333 H 62.25952190921328 71.48182532776727 86.0851497107447 H 0.0 **** 0.06
8334 H 61.75980439601989 73.07575374439915 86.7015655039724 H 0.0 **** 0.06
8335 H 60.5513464732644 71.97617360436777 85.9954765184728 H 0.0 **** 0.06
8336 C 75.08221977690039 27.719889140711416 9.100233876039596 C 0.0 **** -0.24
8337 H 76.08915323433473 27.742489952696644 9.518384174174514 H 0.0 **** 0.06
8338 H 74.82456535856795 28.708424687858155 8.719434597601492 H 0.0 **** 0.06
8339 H 74.37376147320111 27.434190909560357 9.877454381631111 H 0.0 **** 0.06
8340 H 75.04279876711837 26.995316151212762 8.287176479943867 H 0.0 **** 0.06
8341 C 47.04106265364176 11.555322732691753 79.74438988461955 C 0.0 **** -0.24
8342 H 46.4769445458066 12.466806323620315 79.5459110900357 H 0.0 **** 0.06
8343 H 47.732150583362284 11.36981870775054 78.92250541212445 H 0.0 **** 0.06
8344 H 46.351693882039 10.71544614833557 79.83671251808093 H 0.0 **** 0.06
8345 H 47.60057691587545 11.669979462065946 80.67211125686632 H 0.0 **** 0.06
8346 C 93.50130301663762 31.340318700386263 74.76176676438214 C 0.0 **** -0.24
8347 H 93.82963897760251 31.47509263478969 75.79188026119516 H 0.0 **** 0.06
8348 H 94.35832856989686 31.426860366647134 74.09329449685686 H 0.0 **** 0.06
8349 H 92.76595466363759 32.10482527288735 74.51122957573966 H 0.0 **** 0.06
8350 H 93.05092165752467 30.353571779644653 74.6505661372023 H 0.0 **** 0.06
8351 C 33.41972641757724 35.83578823769162 62.4708098245763 C 0.0 **** -0.24
8352 H 34.239038966242276 35.8418099726955 63.18987455796978 H 0.0 **** 0.06
8353 H 33.15024388334035 36.8621642581748 62.219026395381654 H 0.0 **** 0.06
8354 H 32.5578559097404 35.33002098391947 62.905914516657724 H 0.0 **** 0.06
8355 H 33.73192437200231 35.30988209979691 61.56909506581565 H 0.0 **** 0.06
8356 C 12.247910881839772 111.82285503477941 64.00745364376294 C 0.0 **** -0.24
8357 H 11.950864831861537 111.64689790684517 65.04138358772988 H 0.0 **** 0.06
8358 H 13.068584070439982 112.54124287156954 63.982635460417384 H 0.0 **** 0.06
8359 H 11.401487426246916 112.21870214342368 63.4479523654351 H 0.0 **** 0.06
8360 H 12.57288103292629 110.88415412356417 63.558889955282694 H 0.0 **** 0.06
8361 C 80.84607414986343 88.18327071647417 94.54586218584302 C 0.0 **** -0.24
8362 H 81.11285439213466 89.21904323381699 94.7529199420569 H 0.0 **** 0.06
8363 H 81.53795057808861 87.51847769941133 95.06452848553278 H 0.0 **** 0.06
8364 H 80.9026145480477 88.00195981845837 93.47271032802112 H 0.0 **** 0.06
8365 H 79.83010807364155 87.9932554318404 94.8938271054956 H 0.0 **** 0.06
8366 C 48.71073763281731 73.70922902734802 13.107663360881705 C 0.0 **** -0.24
8367 H 49.73218880266879 73.46704543751676 12.813425304436993 H 0.0 **** 0.06
8368 H 48.08556218364379 73.78375444201282 12.21749761832993 H 0.0 **** 0.06
8369 H 48.70245241571115 74.66078343269422 13.639547725064588 H 0.0 **** 0.06
8370 H 48.32481819122037 72.92553026124622 13.758889717748232 H 0.0 **** 0.06
8371 C 91.37926097704155 82.20121738976735 77.96964569526588 C 0.0 **** -0.24
8372 H 90.44447469833628 82.27464620486862 78.52590035119661 H 0.0 **** 0.06
8373 H 91.28979495141323 82.75483562655685 77.03525068304478 H 0.0 **** 0.06
8374 H 91.59205843925574 81.15429315741528 77.75321259778792 H 0.0 **** 0.06
8375 H 92.18961163329985 82.62143433755435 78.56613372871828 H 0.0 **** 0.06
8376 C 97.66359611953581 20.753985391476135 37.31639743419606 C 0.0 **** -0.24
8377 H 98.59534663433323 21.18945483385255 37.679612004715736 H 0.0 **** 0.06
8378 H 97.44928563437688 21.13571740934765 36.31772825852391 H 0.0 **** 0.06
8379 H 96.85071962401082 21.02362040322282 37.99173900384366 H 0.0 **** 0.06
8380 H 97.7599204319717 19.66982722241778 37.27896795134261 H 0.0 **** 0.06
8381 C 49.952420069984896 106.73284916856733 3.0256338061263364 C 0.0 **** -0.24
8382 H 49.45869432948632 106.25704451676421 3.8726291929006607 H 0.0 **** 0.06
8383 H 49.493796632602994 106.38892127303671 2.097956816178055 H 0.0 **** 0.06
8384 H 51.01033913533263 106.47162854809295 3.028530457289719 H 0.0 **** 0.06
8385 H 49.84454707461481 107.81554941194184 3.1050448100776293 H 0.0 **** 0.06
8386 C 16.048757576146514 75.51825853167304 88.93195839270197 C 0.0 **** -0.24
8387 H 15.788661601415058 74.68763726176388 88.27597457589394 H 0.0 **** 0.06
8388 H 17.087100263354827 75.80463031350172 88.75925007385993 H 0.0 **** 0.06
8389 H 15.923149216335005 75.21401590960085 89.97090946814146 H 0.0 **** 0.06
8390 H 15.397469166257252 76.36610866521727 88.72003638221253 H 0.0 **** 0.06
8391 C 96.70051685655426 78.38888880673687 45.56548732624629 C 0.0 **** -0.24
8392 H 96.25563790496182 77.3931414202645 45.577417701101695 H 0.0 **** 0.06
8393 H 95.96534428508971 79.11951290803319 45.90351118321552 H 0.0 **** 0.06
8394 H 97.01611338721693 78.63287980305034 44.55162315696833 H 0.0 **** 0.06
8395 H 97.56401138715478 78.4079148397808 46.23019822556565 H 0.0 **** 0.06
8396 C 71.52285643597858 61.416764405827784 111.94432504528717 C 0.0 **** -0.24
8397 H 70.72819648265965 60.86449085598655 111.44236499269354 H 0.0 **** 0.06
8398 H 71.57711092187279 61.106491107177185 112.98762380256974 H 0.0 **** 0.06
8399 H 71.31189470066408 62.48445459336468 111.89227557996222 H 0.0 **** 0.06
8400 H 72.47372892705926 61.21007162843325 111.4535012751171 H 0.0 **** 0.06
8401 C 42.753291584602806 37.633189416206 63.311749147395396 C 0.0 **** -0.24
8402 H 41.94605710209977 36.93736974682689 63.08209747191351 H 0.0 **** 0.06
8403 H 42.655097192211 38.52179971001394 62.68826940371269 H 0.0 **** 0.06
8404 H 43.71252207424574 37.15395496889665 63.11368942459908 H 0.0 **** 0.06
8405 H 42.699421631172044 37.917692782807336 64.36183112621575 H 0.0 **** 0.06
8406 C 46.70043938180589 80.59528249344439 103.54348014809355 C 0.0 **** -0.24
8407 H 46.53972504715193 81.49687193275957 104.13378322385068 H 0.0 **** 0.06
8408 H 47.67989354675632 80.64098699535236 103.06893094867141 H 0.0 **** 0.06
8409 H 45.92847002376118 80.52052889362989 102.77807858199256 H 0.0 **** 0.06
8410 H 46.65188381488031 79.7217100084234 104.19399293911817 H 0.0 **** 0.06
8411 C 87.30180375113002 36.50960563850117 111.36657494272289 C 0.0 **** -0.24
8412 H 86.75120515908046 35.749060461720376 111.91890322560396 H 0.0 **** 0.06
8413 H 86.66738835589834 37.383153972353 111.22087411757826 H 0.0 **** 0.06
8414 H 87.60035721172147 36.11059196164018 110.3974442622673 H 0.0 **** 0.06
8415 H 88.190281521967 36.7959616642583 111.93042415653349 H 0.0 **** 0.06
8416 C 52.29906307349037 10.025230339554128 73.48286162526097 C 0.0 **** -0.24
8417 H 52.125008457257394 9.229765444912033 74.20783887510976 H 0.0 **** 0.06
8418 H 52.56957173934893 10.941540421816683 74.0078123847153 H 0.0 **** 0.06
8419 H 51.39285582570585 10.192856768666488 72.90300470418174 H 0.0 **** 0.06
8420 H 53.11018267827362 9.736154549051491 72.81473173443453 H 0.0 **** 0.06
8421 C 53.66835988126349 95.49310423040086 8.74433126965765 C 0.0 **** -0.24
8422 H 54.50243186488976 95.83217925043343 9.358487952865602 H 0.0 **** 0.06
8423 H 53.4185958046557 96.26299705720339 8.013940033031915 H 0.0 **** 0.06
8424 H 52.8034479098339 95.3012178696784 9.379918666612355 H 0.0 **** 0.06
8425 H 53.948199938014845 94.57637927941903 8.226113894501637 H 0.0 **** 0.06
8426 C 58.1367060611326 95.60198971657937 27.95630971552336 C 0.0 **** -0.24
8427 H 57.731025871613724 94.66615606099984 28.34193699342964 H 0.0 **** 0.06
8428 H 59.10862409014618 95.79120021544745 28.413095416980383 H 0.0 **** 0.06
8429 H 57.45658585146748 96.41893620559674 28.19635824192622 H 0.0 **** 0.06
8430 H 58.250315733964754 95.52948803371507 26.874273308128892 H 0.0 **** 0.06
8431 C 31.365383665628286 63.49376263547435 21.870108513680407 C 0.0 **** -0.24
8432 H 30.691066954823526 63.736565874339185 21.049042783317276 H 0.0 **** 0.06
8433 H 31.594938126515387 62.42797738701717 21.84723930134149 H 0.0 **** 0.06
8434 H 30.887966595250504 63.74257290120617 22.81793117003079 H 0.0 **** 0.06
8435 H 32.28646949159702 64.06646051851507 21.763847508024043 H 0.0 **** 0.06
8436 C 80.39423648260072 102.0908711587449 81.16752866403954 C 0.0 **** -0.24
8437 H 79.99149704085221 101.81061738502595 80.19447464489178 H 0.0 **** 0.06
8438 H 80.51284584520997 101.19775835717209 81.78223657559528 H 0.0 **** 0.06
8439 H 79.70902247573898 102.7817590254902 81.65879143962493 H 0.0 **** 0.06
8440 H 81.36340446396036 102.57236547119004 81.03461485867683 H 0.0 **** 0.06
8441 C 54.42964594291359 9.911796483928185 101.08598604438845 C 0.0 **** -0.24
8442 H 54.49846438964055 10.846538372976312 101.64180433556555 H 0.0 **** 0.06
8443 H 53.61283803562952 9.310600264487363 101.48684063866634 H 0.0 **** 0.06
8444 H 55.36644881501982 9.36245103560546 101.18310137343133 H 0.0 **** 0.06
8445 H 54.241439786523365 10.127422737316124 100.0345645724781 H 0.0 **** 0.06
8446 C 17.763150999158967 29.912191936620758 24.792876816134566 C 0.0 **** -0.24
8447 H 18.80837382815693 29.70233435325926 25.021335690827982 H 0.0 **** 0.06
8448 H 17.12661161224389 29.43750071844795 25.539687537683307 H 0.0 **** 0.06
8449 H 17.522002815630344 29.518413827697984 23.804623891139784 H 0.0 **** 0.06
8450 H 17.598520513737895 30.98910203589687 24.80511478384443 H 0.0 **** 0.06
8451 C 16.646454394817113 68.29808032159099 77.61847790092605 C 0.0 **** -0.24
8452 H 17.436357572668584 67.68732788715909 78.05631103692025 H 0.0 **** 0.06
8453 H 16.27955977587345 67.82000538266641 76.71002531494858 H 0.0 **** 0.06
8454 H 17.042804532990772 69.28448639774723 77.37490843419536 H 0.0 **** 0.06
8455 H 15.829632533352907 68.40136566993908 78.33176219923749 H 0.0 **** 0.06
8456 C 1.2579299628708043 49.388139361590085 20.34549054654974 C 0.0 **** -0.24
8457 H 1.0116889065939745 49.356393534385596 21.407467952212613 H 0.0 **** 0.06
8458 H 1.0861160739096505 48.40669420450485 19.903366369380592 H 0.0 **** 0.06
8459 H 2.304390440465184 49.664827542734166 20.22426180184084 H 0.0 **** 0.06
8460 H 0.6272937757507435 50.125899536531435 19.84940455304536 H 0.0 **** 0.06
8461 C 96.4031046413428 31.983101360333194 80.1409384653802 C 0.0 **** -0.24
8462 H 95.41633461517114 32.17655961549431 79.71980638297049 H 0.0 **** 0.06
8463 H 97.15201314017926 32.03787346124409 79.3511603704124 H 0.0 **** 0.06
8464 H 96.41828151281356 30.989240730842056 80.58857907644557 H 0.0 **** 0.06
8465 H 96.62338726962145 32.728999301082666 80.90460672709008 H 0.0 **** 0.06
8466 C 35.75776232986837 8.172378357400376 17.497585228748903 C 0.0 **** -0.24
8467 H 36.558232121959236 8.816640226194096 17.134877212260335 H 0.0 **** 0.06
8468 H 35.67788066896381 8.268122416371625 18.580753463498468 H 0.0 **** 0.06
8469 H 35.97954283903851 7.137458684912474 17.238726157458302 H 0.0 **** 0.06
8470 H 34.81623985145202 8.469361450474636 17.03593835444525 H 0.0 **** 0.06
8471 C 79.33062069686423 50.52630963356239 112.44301390026949 C 0.0 **** -0.24
8472 H 78.91464732496016 49.51964505437858 112.39492020383905 H 0.0 **** 0.06
8473 H 79.6704181981446 50.73060399714442 113.45819558018985 H 0.0 **** 0.06
8474 H 78.56450785544183 51.24939458460795 112.16337189599133 H 0.0 **** 0.06
8475 H 80.17236588123626 50.60399977413924 111.75516751210677 H 0.0 **** 0.06
8476 C 35.233136226342936 52.47030477556882 68.88985958956837 C 0.0 **** -0.24
8477 H 34.49085705647343 52.44874429328809 68.09104781510774 H 0.0 **** 0.06
8478 H 35.27400207538855 53.471544613348954 69.31887842986842 H 0.0 **** 0.06
8479 H 36.210525795803676 52.20795137051539 68.48361241130212 H 0.0 **** 0.06
8480 H 34.95623371156415 51.75381699073034 69.66299452098716 H 0.0 **** 0.06
8481 C 38.97551819045171 14.642688201484006 59.12077311647863 C 0.0 **** -0.24
8482 H 39.87237856259628 14.982066339684934 59.63930697219732 H 0.0 **** 0.06
8483 H 38.856000819686216 13.568388183263238 59.26618474157482 H 0.0 **** 0.06
8484 H 39.06887778120833 14.85640118508772 58.05576552631777 H 0.0 **** 0.06
8485 H 38.10556285974931 15.163312302081934 59.521519518801 H 0.0 **** 0.06
8486 C 56.12925138435913 82.04909413187008 57.57832483482733 C 0.0 **** -0.24
8487 H 56.99286204466614 82.61413966364316 57.92734273792016 H 0.0 **** 0.06
8488 H 55.66719384090374 82.57317925587381 56.74128598364054 H 0.0 **** 0.06
8489 H 55.40783066213488 81.95125926715889 58.389874525574704 H 0.0 **** 0.06
8490 H 56.4488412126369 81.05819844821727 57.25566948250334 H 0.0 **** 0.06
8491 C 50.940740663451436 28.539521711325307 5.008548081950277 C 0.0 **** -0.24
8492 H 51.84292560400996 27.944455386012066 5.146861994671385 H 0.0 **** 0.06
8493 H 51.15704034224194 29.5845188745717 5.232523117699904 H 0.0 **** 0.06
8494 H 50.16033997190459 28.177314889384803 5.678055653767826 H 0.0 **** 0.06
8495 H 50.60202214840518 28.45091040328498 3.9758514920540478 H 0.0 **** 0.06
8496 C 105.50165899238826 11.780667453404533 54.73735095812759 C 0.0 **** -0.24
8497 H 105.5517894440342 12.292940710696485 55.69791923289546 H 0.0 **** 0.06
8498 H 106.01803735397706 12.373084054702133 53.98245208253064 H 0.0 **** 0.06
8499 H 104.45770931103556 11.653454878682055 54.44851971144806 H 0.0 **** 0.06
8500 H 105.97730017441611 10.803845736861604 54.821666774907186 H 0.0 **** 0.06
8501 C 3.446906307110112 49.25593892719871 86.74636851922583 C 0.0 **** -0.24
8502 H 3.746502618905083 49.33812365638971 85.70162878907263 H 0.0 **** 0.06
8503 H 4.297528053559745 49.48658719913561 87.38790762297236 H 0.0 **** 0.06
8504 H 3.104366228971571 48.24122379670024 86.9471042698849 H 0.0 **** 0.06
8505 H 2.6387490645817593 49.959123451332175 86.94856101865577 H 0.0 **** 0.06
8506 C 5.297705990102202 62.7537048511839 75.35819511627815 C 0.0 **** -0.24
8507 H 5.36589131965394 62.542680596878824 76.4253567299219 H 0.0 **** 0.06
8508 H 6.028143477073456 63.517262084052675 75.0909876850748 H 0.0 **** 0.06
8509 H 4.2950156458905155 63.110597573433495 75.12217590367487 H 0.0 **** 0.06
8510 H 5.501306076452238 61.842936290106024 74.79524928499345 H 0.0 **** 0.06
8511 C 13.452830933781513 97.80885718298208 65.85504971177409 C 0.0 **** -0.24
8512 H 13.145946900861361 98.84313966925791 66.01062065906186 H 0.0 **** 0.06
8513 H 12.56963604686149 97.17683504653746 65.76792255033033 H 0.0 **** 0.06
8514 H 14.055420153569912 97.47871253739746 66.70161168417522 H 0.0 **** 0.06
8515 H 14.042870227421929 97.73914048120835 64.94090714358614 H 0.0 **** 0.06
8516 C 12.34991894702705 104.59992816711198 78.62854815644818 C 0.0 **** -0.24
8517 H 12.168250768075382 105.65496404521687 78.42398679722893 H 0.0 **** 0.06
8518 H 13.015115910673273 104.50633470051562 79.4879472193503 H 0.0 **** 0.06
8519 H 12.812175129792024 104.13583564739983 77.75803642563037 H 0.0 **** 0.06
8520 H 11.404026787829537 104.10380779810023 78.84543748347417 H 0.0 **** 0.06
8521 C 36.99684594502794 11.873060717286023 77.16615115801645 C 0.0 **** -0.24
8522 H 37.10563991490909 11.170487024432106 77.99244437100009 H 0.0 **** 0.06
8523 H 36.65412089334272 12.834439721285321 77.55021287484502 H 0.0 **** 0.06
8524 H 36.26917592725151 11.485235076211922 76.4535004799445 H 0.0 **** 0.06
8525 H 37.95934132610517 12.001399827305619 76.67037990489433 H 0.0 **** 0.06
8526 C 30.2027702195372 75.46605541839403 57.194589854599485 C 0.0 **** -0.24
8527 H 31.21057752699398 75.84482557875623 57.02446641314725 H 0.0 **** 0.06
8528 H 29.68155777819009 75.38205971529214 56.2410329889245 H 0.0 **** 0.06
8529 H 29.662586839565975 76.15269806545615 57.846348382611495 H 0.0 **** 0.06
8530 H 30.25880540397705 74.48452217561925 57.666486035219805 H 0.0 **** 0.06
8531 C 105.94945608656073 86.19095785588908 18.319079449126974 C 0.0 **** -0.24
8532 H 106.8726450064873 85.62166123507455 18.425653106646422 H 0.0 **** 0.06
8533 H 105.19279188510862 85.78630358813959 18.99239043698816 H 0.0 **** 0.06
8534 H 105.59618792230242 86.12154635477106 17.290711332289533 H 0.0 **** 0.06
8535 H 106.13698117069916 87.235716768097 18.56912466638113 H 0.0 **** 0.06
8536 C 109.94654030202636 90.62732071839565 65.8119293966945 C 0.0 **** -0.24
8537 H 110.00336165970188 91.51095446080137 66.44782494566016 H 0.0 **** 0.06
8538 H 108.92208936989843 90.49748102643645 65.46232482160781 H 0.0 **** 0.06
8539 H 110.25039140104951 89.75016954131209 66.3823166798719 H 0.0 **** 0.06
8540 H 110.60997455658836 90.75252999802598 64.95645584910642 H 0.0 **** 0.06
8541 C 54.893231156033494 10.079087715500634 44.881161519370494 C 0.0 **** -0.24
8542 H 55.82729092768532 9.518130203948829 44.86165844383129 H 0.0 **** 0.06
8543 H 54.05667897279359 9.397453362842498 44.726243918404805 H 0.0 **** 0.06
8544 H 54.90306633605095 10.828783348758293 44.08901493986713 H 0.0 **** 0.06
8545 H 54.78605861229122 10.573077090157597 45.84684776808933 H 0.0 **** 0.06
8546 C 74.87762004272327 14.757839712096807 69.23587142072131 C 0.0 **** -0.24
8547 H 73.94466009571124 14.279065710432036 68.93969657355288 H 0.0 **** 0.06
8548 H 74.65840833052329 15.689460797919775 69.7573345120698 H 0.0 **** 0.06
8549 H 75.47533142113065 14.967932388462902 68.34872905157346 H 0.0 **** 0.06
8550 H 75.43261131477269 14.091968586972037 69.89737105959526 H 0.0 **** 0.06
8551 C 2.2075718850652493 93.51547314091306 77.0771539782616 C 0.0 **** -0.24
8552 H 2.275198959530627 93.45775920548891 75.9908993782579 H 0.0 **** 0.06
8553 H 1.8690915614654955 92.55719439734392 77.47158182848045 H 0.0 **** 0.06
8554 H 1.498196859552138 94.29492191135532 77.35624734613052 H 0.0 **** 0.06
8555 H 3.1885733265078215 93.75319668634768 77.48978351713683 H 0.0 **** 0.06
8556 C 1.7781117768708157 89.06043648680466 57.17344963863482 C 0.0 **** -0.24
8557 H 2.6174856347233515 89.70266613611881 57.44041968206423 H 0.0 **** 0.06
8558 H 1.0912349328550306 89.61020859819402 56.528673466730396 H 0.0 **** 0.06
8559 H 1.256570179419242 88.74909616936944 58.07910521224426 H 0.0 **** 0.06
8560 H 2.147456755384667 88.18096025809064 56.64631092749616 H 0.0 **** 0.06
8561 C 27.253855178672126 27.742773323396705 11.668836820999147 C 0.0 **** -0.24
8562 H 27.31650961809359 28.8189373689291 11.515492064518611 H 0.0 **** 0.06
8563 H 27.208560769733026 27.53010108438896 12.737254980920937 H 0.0 **** 0.06
8564 H 28.133966193700132 27.26242273074056 11.240340208819575 H 0.0 **** 0.06
8565 H 26.35773302204933 27.357750503204308 11.183060277669384 H 0.0 **** 0.06
8566 C 103.45555595378255 74.89462311644621 37.35798206942732 C 0.0 **** -0.24
8567 H 103.11453036335072 73.92107910839349 37.0052923729985 H 0.0 **** 0.06
8568 H 103.57010556093076 75.56818419505868 36.50835904566145 H 0.0 **** 0.06
8569 H 104.41451656039447 74.78226316282627 37.86471004042775 H 0.0 **** 0.06
8570 H 102.72335846296707 75.30625280456275 38.052379796574954 H 0.0 **** 0.06
8571 C 18.88288275115505 10.997955874464168 34.59777606683497 C 0.0 **** -0.24
8572 H 19.412473231021522 11.659101191093583 35.283618013249736 H 0.0 **** 0.06
8573 H 19.56850787877795 10.651368792603506 33.82519344262079 H 0.0 **** 0.06
8574 H 18.05759370096993 11.539877138809572 34.13569303546609 H 0.0 **** 0.06
8575 H 18.491579494777227 10.141926722151993 35.14830335195927 H 0.0 **** 0.06
8576 C 29.07304793668238 92.47085813627766 61.50670204307419 C 0.0 **** -0.24
8577 H 29.11309174834038 91.80769110541053 60.64290673172443 H 0.0 **** 0.06
8578 H 29.520181708563 91.97210023678224 62.36775921374417 H 0.0 **** 0.06
8579 H 28.035555097868126 92.71818182168244 61.72809063133676 H 0.0 **** 0.06
8580 H 29.626309305136004 93.38512710566724 61.28851042073358 H 0.0 **** 0.06
8581 C 11.498788244904318 0.35724156526194406 5.767778297400705 C 0.0 **** -0.24
8582 H 12.53076706350032 0.047770013088950236 5.933821901904654 H 0.0 **** 0.06
8583 H 11.464528918510183 1.4351671647412445 5.60377159748818 H 0.0 **** 0.06
8584 H 10.898433278284585 0.10249493881724447 6.640647365559827 H 0.0 **** 0.06
8585 H 11.102577200140203 -0.1561330152484004 4.891623777704796 H 0.0 **** 0.06
8586 C 93.07981351032657 28.140394318091815 66.22129063992867 C 0.0 **** -0.24
8587 H 93.15352080443986 28.472655151082968 67.25654487623859 H 0.0 **** 0.06
8588 H 92.02974471910733 28.02983971989441 65.94974021586387 H 0.0 **** 0.06
8589 H 93.58722266371714 27.181917545991865 66.11062612746346 H 0.0 **** 0.06
8590 H 93.54876708920867 28.87744705120253 65.5692107257469 H 0.0 **** 0.06
8591 C 44.52627151882959 81.76861466338246 30.82333462695641 C 0.0 **** -0.24
8592 H 43.823806487038894 80.98624399624418 30.538697451556885 H 0.0 **** 0.06
8593 H 44.19045627909142 82.72419892613823 30.41831322463483 H 0.0 **** 0.06
8594 H 45.51304795159197 81.53216783314895 30.42643475960074 H 0.0 **** 0.06
8595 H 44.577611911487736 81.83306151348978 31.91060055790291 H 0.0 **** 0.06
8596 C 66.74292474814564 95.07670877355628 95.26281818558212 C 0.0 **** -0.24
8597 H 67.65769244416728 95.64454638190955 95.43644414944845 H 0.0 **** 0.06
8598 H 66.16903138721221 95.54763105829323 94.46568086139024 H 0.0 **** 0.06
8599 H 66.14879345280295 95.05742114710839 96.17666138991316 H 0.0 **** 0.06
8600 H 66.99903618890266 94.05693061525292 94.97488616771318 H 0.0 **** 0.06
8601 C 109.25181814661545 46.908733149747206 10.596013600681943 C 0.0 **** -0.24
8602 H 109.32401832505869 47.91171667217688 10.173597142672236 H 0.0 **** 0.06
8603 H 108.21380682798764 46.69562389413176 10.849024013345968 H 0.0 **** 0.06
8604 H 109.8648918741957 46.84876670315893 11.495465122606277 H 0.0 **** 0.06
8605 H 109.606146358415 46.1815568332012 9.865874247576642 H 0.0 **** 0.06
8606 C 104.08580586493525 4.821148931028802 69.49930441681772 C 0.0 **** -0.24
8607 H 103.63597488163836 4.289575982013929 68.6605704348614 H 0.0 **** 0.06
8608 H 104.06411195557266 5.892746634694049 69.30433761999018 H 0.0 **** 0.06
8609 H 105.118615618398 4.4949128314276265 69.62472551925032 H 0.0 **** 0.06
8610 H 103.52460788732435 4.605484667590758 70.40827312972638 H 0.0 **** 0.06
8611 C 110.82101047800717 0.8793523056120875 102.55984470963341 C 0.0 **** -0.24
8612 H 111.83643557601013 0.5830009324677121 102.82309958629571 H 0.0 **** 0.06
8613 H 110.79088097995057 1.9538579474367452 102.38022787372452 H 0.0 **** 0.06
8614 H 110.14676695589935 0.627350141220802 103.37728147795144 H 0.0 **** 0.06
8615 H 110.51234577518582 0.3513257891263777 101.6571002598439 H 0.0 **** 0.06
8616 C 88.14439228213865 44.72446021875065 65.06812624959147 C 0.0 **** -0.24
8617 H 88.36477483199016 43.66293886595433 65.17249212562575 H 0.0 **** 0.06
8618 H 87.90902705103298 44.94662836026424 64.02733716979415 H 0.0 **** 0.06
8619 H 89.01258583464227 45.3074569433565 65.37694693539007 H 0.0 **** 0.06
8620 H 87.29114627431068 44.98276475197477 65.6968261114803 H 0.0 **** 0.06
8621 C 23.174644008986178 98.54512478259872 66.9676686380005 C 0.0 **** -0.24
8622 H 24.020627820781215 97.9055731638177 66.71531665471363 H 0.0 **** 0.06
8623 H 23.22332089157976 99.46137909061738 66.37855655902365 H 0.0 **** 0.06
8624 H 23.211291746877606 98.79275721599532 68.02850863901753 H 0.0 **** 0.06
8625 H 22.24384292575644 98.02106507340613 66.74910927814796 H 0.0 **** 0.06
8626 C 68.13458467346445 35.38106264427114 48.853740429355355 C 0.0 **** -0.24
8627 H 68.97892378406348 35.597879467645754 48.20083062414977 H 0.0 **** 0.06
8628 H 68.35733109982061 34.49865225638919 49.454712476946696 H 0.0 **** 0.06
8629 H 67.24605059830452 35.19487084523115 48.24992486324766 H 0.0 **** 0.06
8630 H 67.9555394277073 36.23280493082777 49.51081830402731 H 0.0 **** 0.06
8631 C 95.00199971242634 41.6567949719053 54.279072014575036 C 0.0 **** -0.24
8632 H 95.30620628820077 42.64787987350152 53.943676098961305 H 0.0 **** 0.06
8633 H 94.81100455383267 41.679420248075274 55.35201299204334 H 0.0 **** 0.06
8634 H 95.79642363393299 40.94207736669483 54.06587790913085 H 0.0 **** 0.06
8635 H 94.0951909476056 41.358695619240336 53.753488538777106 H 0.0 **** 0.06
8636 C 79.18546328436119 100.66770319874803 76.93099236630906 C 0.0 **** -0.24
8637 H 79.44944190018842 100.85147700632189 75.8893130042623 H 0.0 **** 0.06
8638 H 79.24329891905023 101.60134270147302 77.49024248047638 H 0.0 **** 0.06
8639 H 79.87983929049614 99.94353370033372 77.35832005201226 H 0.0 **** 0.06
8640 H 78.17063540074511 100.27350466209913 76.9842959349703 H 0.0 **** 0.06
8641 C 60.26522926542512 67.14004393824212 58.96630108918217 C 0.0 **** -0.24
8642 H 59.24324185801876 67.27185450403579 59.32060189571851 H 0.0 **** 0.06
8643 H 60.619887963812374 66.1465790808212 59.24114501819545 H 0.0 **** 0.06
8644 H 60.9066832010345 67.89527493602361 59.42174751228532 H 0.0 **** 0.06
8645 H 60.29097664942171 67.2484261744014 57.88209274098293 H 0.0 **** 0.06
8646 C 25.790341920980495 105.0414180866313 40.9802299138598 C 0.0 **** -0.24
8647 H 24.954597008244576 104.52446325848476 41.45258208901123 H 0.0 **** 0.06
8648 H 26.12976373437374 105.84968902894946 41.62914238163897 H 0.0 **** 0.06
8649 H 25.467823931375335 105.45301001179556 40.02430179239131 H 0.0 **** 0.06
8650 H 26.606478462812618 104.33863578251285 40.816527461793925 H 0.0 **** 0.06
8651 C 18.895982633465625 16.440068661402563 109.92215473687904 C 0.0 **** -0.24
8652 H 18.154920346016546 16.599257599331906 109.13776066914623 H 0.0 **** 0.06
8653 H 19.631374921456057 17.244003068398513 109.89478636026385 H 0.0 **** 0.06
8654 H 19.39455646509094 15.485018614154228 109.76194289967418 H 0.0 **** 0.06
8655 H 18.399823089393198 16.433075336910576 110.89263409634816 H 0.0 **** 0.06
8656 C 54.2751942541232 32.41546824038156 40.50631312373754 C 0.0 **** -0.24
8657 H 55.20290461540145 31.971490703561443 40.144224922278184 H 0.0 **** 0.06
8658 H 54.50488880378489 33.19027681763998 41.238203490508766 H 0.0 **** 0.06
8659 H 53.66100484964545 31.644218958066574 40.97248946569937 H 0.0 **** 0.06
8660 H 53.732259256056885 32.85524464325968 39.66910601108101 H 0.0 **** 0.06
8661 C 41.60893569452905 7.343200072673312 2.857048202112942 C 0.0 **** -0.24
8662 H 41.88136625423422 6.705748109630747 3.699200248955705 H 0.0 **** 0.06
8663 H 42.33091738792825 8.154773092570593 2.7682786146579215 H 0.0 **** 0.06
8664 H 40.61423572667684 7.75654878822607 3.0232655065124057 H 0.0 **** 0.06
8665 H 41.60850869646228 6.752978734421902 1.9410427758440818 H 0.0 **** 0.06
8666 C 76.58846235755928 72.86619799813553 57.53671166228672 C 0.0 **** -0.24
8667 H 76.8252626888771 73.62803533995805 56.793915011841456 H 0.0 **** 0.06
8668 H 75.74750040425275 73.20048685172407 58.14536297464003 H 0.0 **** 0.06
8669 H 77.45645381858111 72.69917997515657 58.17513882192102 H 0.0 **** 0.06
8670 H 76.3256090197383 71.9368839348925 57.03236572303722 H 0.0 **** 0.06
8671 C 79.92356324274141 39.4331407464547 50.914365817063754 C 0.0 **** -0.24
8672 H 79.21455619613837 38.74031921878542 50.45944404802725 H 0.0 **** 0.06
8673 H 79.39285817719934 40.31957853219837 51.26205617757944 H 0.0 **** 0.06
8674 H 80.67202571177864 39.72337191206214 50.176377167543535 H 0.0 **** 0.06
8675 H 80.4141669986754 38.94790906742471 51.75767093196407 H 0.0 **** 0.06
8676 C 84.63430483147144 94.50942541782473 41.70104479610728 C 0.0 **** -0.24
8677 H 83.55232568886618 94.38336496774437 41.746600458663806 H 0.0 **** 0.06
8678 H 85.11705039016783 93.68688112992245 42.228705678334336 H 0.0 **** 0.06
8679 H 84.910195446128 95.45380910563622 42.16983066180342 H 0.0 **** 0.06
8680 H 84.95572899462331 94.5127931598116 40.66030349174284 H 0.0 **** 0.06
8681 C 53.13006176827548 105.93998401737741 65.77111145494021 C 0.0 **** -0.24
8682 H 52.87017833316162 106.12192406443637 64.72846636232316 H 0.0 **** 0.06
8683 H 53.7407707756978 105.03975013531121 65.84236365494795 H 0.0 **** 0.06
8684 H 52.21821342822645 105.80855665062961 66.35470198835483 H 0.0 **** 0.06
8685 H 53.69049217214487 106.79100502128748 66.15989350264314 H 0.0 **** 0.06
8686 C 0.07710700578610385 59.64238145560039 55.5579142773313 C 0.0 **** -0.24
8687 H 1.0770858318367402 59.21977890970465 55.658462062000076 H 0.0 **** 0.06
8688 H -0.33259474354133545 59.844175591642745 56.547407566151136 H 0.0 **** 0.06
8689 H -0.565681177664743 58.93300514557338 55.03616144226681 H 0.0 **** 0.06
8690 H 0.13002930723413897 60.57037248454973 54.98976359842405 H 0.0 **** 0.06
8691 C 69.82601169099112 86.10534444681139 101.1627125518381 C 0.0 **** -0.24
8692 H 68.74302110457728 86.17784959139871 101.26527869755017 H 0.0 **** 0.06
8693 H 70.2018886911822 85.32774789764585 101.82837652924084 H 0.0 **** 0.06
8694 H 70.27955977175813 87.06049662962522 101.42524020751847 H 0.0 **** 0.06
8695 H 70.07658989281546 85.85399588140771 100.13260149182548 H 0.0 **** 0.06
8696 C 94.47381025125756 4.864898126370534 97.43847912083825 C 0.0 **** -0.24
8697 H 94.3732511520366 5.7088881647395056 96.75550026527199 H 0.0 **** 0.06
8698 H 93.79246409216626 4.9960931062112195 98.27865329031758 H 0.0 **** 0.06
8699 H 95.49961603397716 4.816361730428596 97.80591372917476 H 0.0 **** 0.06
8700 H 94.2314762694165 3.9414972120727896 96.91284963295163 H 0.0 **** 0.06
8701 C 11.335917401927134 51.42942384034262 47.646563897147075 C 0.0 **** -0.24
8702 H 10.463318664295969 50.784258161554874 47.54565767660492 H 0.0 **** 0.06
8703 H 11.477373661446336 51.68718141210712 48.69671275149102 H 0.0 **** 0.06
8704 H 11.183739536782866 52.34038368321785 47.0672406012537 H 0.0 **** 0.06
8705 H 12.218342196034257 50.907307262887684 47.277016691294335 H 0.0 **** 0.06
8706 C 54.930620162257014 35.8867010948889 42.84497717603085 C 0.0 **** -0.24
8707 H 55.58831074856613 35.09046831477649 43.19332876615141 H 0.0 **** 0.06
8708 H 53.89245257508384 35.565845244980515 42.938106379740304 H 0.0 **** 0.06
8709 H 55.1506681025067 36.10948927099466 41.80094378578411 H 0.0 **** 0.06
8710 H 55.09127699054011 36.77982122664838 43.449664087757014 H 0.0 **** 0.06
8711 C 72.5818272125095 88.11337380881508 110.9001701660074 C 0.0 **** -0.24
8712 H 71.59336819842855 87.66525587138841 110.79763969879467 H 0.0 **** 0.06
8713 H 73.26461190049173 87.65152357999833 110.18674403320405 H 0.0 **** 0.06
8714 H 72.95047837122368 87.95315008863142 111.9127574484861 H 0.0 **** 0.06
8715 H 72.51785629244446 89.183016829146 110.70161313472671 H 0.0 **** 0.06
8716 C 29.035662911569368 83.3169192200985 8.88387634233095 C 0.0 **** -0.24
8717 H 29.526590927987606 84.24295926087734 9.182179684034523 H 0.0 **** 0.06
8718 H 29.497778338814456 82.4775063291209 9.404879994469908 H 0.0 **** 0.06
8719 H 29.14202918978048 83.17888134919116 7.808185812784487 H 0.0 **** 0.06
8720 H 27.977462208891794 83.36712711069208 9.140562601527222 H 0.0 **** 0.06
8721 C 29.777718595950972 35.49375477261212 25.298503107312087 C 0.0 **** -0.24
8722 H 30.52378106113474 36.21449747852295 24.961945221640548 H 0.0 **** 0.06
8723 H 29.10267950940863 35.25992328718957 24.475143242106498 H 0.0 **** 0.06
8724 H 29.209342041957342 35.91801179494577 26.12508967799954 H 0.0 **** 0.06
8725 H 30.276028568948163 34.58312061849024 25.629643482200464 H 0.0 **** 0.06
8726 C 86.93128714343155 79.05187831279571 19.165276769777734 C 0.0 **** -0.24
8727 H 86.64746834069408 80.03358472655498 19.542966760043726 H 0.0 **** 0.06
8728 H 86.82271053078114 78.31185727220668 19.957857579612835 H 0.0 **** 0.06
8729 H 87.9690916126884 79.07729251017693 18.83051194875347 H 0.0 **** 0.06
8730 H 86.28650466637788 78.78555378508145 18.32776904303654 H 0.0 **** 0.06
8731 C 24.849243332585218 78.21071468569258 108.00368998250758 C 0.0 **** -0.24
8732 H 24.562159502261323 78.38583171744409 109.039780327085 H 0.0 **** 0.06
8733 H 23.97709069644283 77.88399118644975 107.43491666845455 H 0.0 **** 0.06
8734 H 25.618352074055636 77.43908714075664 107.96546587784727 H 0.0 **** 0.06
8735 H 25.23824823097138 79.13369590444609 107.57330263556273 H 0.0 **** 0.06
8736 C 6.835212673056063 75.52766964183672 25.572453584956484 C 0.0 **** -0.24
8737 H 6.185927826514671 74.70947220162083 25.882665574065967 H 0.0 **** 0.06
8738 H 6.533185713845498 76.44446457825097 26.07940445625261 H 0.0 **** 0.06
8739 H 6.755246740899025 75.66591653226499 24.493437027145514 H 0.0 **** 0.06
8740 H 7.867739083718931 75.29168619229642 25.831718824481207 H 0.0 **** 0.06
8741 C 89.27289335534618 52.3783116794468 51.466928829393254 C 0.0 **** -0.24
8742 H 88.72349488626276 52.96166376765776 50.72787601235291 H 0.0 **** 0.06
8743 H 90.21995288748192 52.049658548266606 51.03827187506286 H 0.0 **** 0.06
8744 H 88.68247791495628 51.508646656824084 51.75439659154617 H 0.0 **** 0.06
8745 H 89.46503400236534 52.99305375723233 52.3455666769203 H 0.0 **** 0.06
8746 C 72.98323276594184 76.39794114455904 67.19373188627202 C 0.0 **** -0.24
8747 H 73.3482731219762 75.6118629331923 66.53352971001274 H 0.0 **** 0.06
8748 H 73.59853897205565 76.43110237359338 68.09397691459498 H 0.0 **** 0.06
8749 H 71.94903212174816 76.18977934582446 67.46895200502277 H 0.0 **** 0.06
8750 H 73.0372011423467 77.35867021851328 66.68144635601058 H 0.0 **** 0.06
8751 C 66.09586480372033 101.1189980689245 78.74019240168604 C 0.0 **** -0.24
8752 H 66.73707985930366 100.9303378036119 79.60164814007038 H 0.0 **** 0.06
8753 H 66.01072216652395 100.20945061769379 78.14493817231238 H 0.0 **** 0.06
8754 H 66.5297451297518 101.91230664482325 78.13223869908444 H 0.0 **** 0.06
8755 H 65.1073032776898 101.42305655323779 79.08254290832315 H 0.0 **** 0.06
8756 C 86.59255506630132 98.80086843645338 76.69073084146589 C 0.0 **** -0.24
8757 H 87.41305051936362 98.09157999688043 76.80211102400386 H 0.0 **** 0.06
8758 H 86.40546350956842 98.97681390926556 75.63118312758206 H 0.0 **** 0.06
8759 H 86.85771622824984 99.74189033197612 77.17401213974534 H 0.0 **** 0.06
8760 H 85.69502670365506 98.39407847069637 77.15598466178938 H 0.0 **** 0.06
8761 C 53.242134889035874 49.08254106198075 9.863252854645975 C 0.0 **** -0.24
8762 H 54.14751736795723 49.082862577138826 9.256676538209916 H 0.0 **** 0.06
8763 H 52.702607308087025 48.14758771550183 9.70984928127207 H 0.0 **** 0.06
8764 H 52.60865147348012 49.91977057741087 9.571119560235982 H 0.0 **** 0.06
8765 H 53.51022143724828 49.17860537197387 10.91535818981199 H 0.0 **** 0.06
8766 C 70.90848192499695 94.81240061661899 73.91519714900309 C 0.0 **** -0.24
8767 H 70.7547525486655 94.38687456576133 74.90630823582512 H 0.0 **** 0.06
8768 H 70.85782833443636 94.01939857949046 73.16850348909344 H 0.0 **** 0.06
8769 H 71.88877737643708 95.28956106677964 73.87243901779718 H 0.0 **** 0.06
8770 H 70.13517915481759 95.55267747702896 73.71353082959621 H 0.0 **** 0.06
8771 C 96.23987025698378 10.552856647069433 82.6108599660171 C 0.0 **** -0.24
8772 H 96.28243709478298 10.04146806936155 81.64861714779778 H 0.0 **** 0.06
8773 H 96.56458684010852 9.871200338290098 83.39760087712631 H 0.0 **** 0.06
8774 H 95.21687306689054 10.872458200818581 82.80598020674464 H 0.0 **** 0.06
8775 H 96.89523760509849 11.422563448901524 82.58861113426448 H 0.0 **** 0.06
8776 C 61.46918605780193 108.92229752033094 15.676146685691606 C 0.0 **** -0.24
8777 H 60.84993754554687 108.2501856481017 16.271741686515327 H 0.0 **** 0.06
8778 H 60.90321367962816 109.82481269756607 15.443084306439687 H 0.0 **** 0.06
8779 H 61.75725598786095 108.42455082423791 14.75012814387452 H 0.0 **** 0.06
8780 H 62.36332648833652 109.1874655420946 16.24008567607251 H 0.0 **** 0.06
8781 C 17.170222253303592 48.257486182243866 95.51383368973381 C 0.0 **** -0.24
8782 H 18.07949507539996 48.187012529339285 96.11047828052833 H 0.0 **** 0.06
8783 H 17.369498198350072 48.842111459539154 94.61546472389875 H 0.0 **** 0.06
8784 H 16.389599265724286 48.74432306115776 96.09824192348896 H 0.0 **** 0.06
8785 H 16.841913482013013 47.25747987191912 95.2320925545921 H 0.0 **** 0.06
8786 C 111.75756165200461 58.494194897210235 75.08511798847059 C 0.0 **** -0.24
8787 H 111.62467745192859 57.87587156509244 75.97290649861748 H 0.0 **** 0.06
8788 H 111.35407142593628 59.488983076482185 75.2717016307638 H 0.0 **** 0.06
8789 H 111.23217371952808 58.03993265434684 74.24528723044591 H 0.0 **** 0.06
8790 H 112.81899666179237 58.56996108523697 74.85145256306828 H 0.0 **** 0.06
8791 C 3.6402198256104725 25.234025803306473 106.19591945615912 C 0.0 **** -0.24
8792 H 3.4181458998073424 25.815930600755628 105.30110361055293 H 0.0 **** 0.06
8793 H 3.908330877435546 24.21644951424993 105.91019861443314 H 0.0 **** 0.06
8794 H 2.762299047166195 25.210787067248717 106.84133052110754 H 0.0 **** 0.06
8795 H 4.471974234419292 25.693204656213183 106.72966259888074 H 0.0 **** 0.06
8796 C 35.97750728695495 35.563118691723545 90.36487121004785 C 0.0 **** -0.24
8797 H 35.588340928665374 34.68804901585986 89.84410829465497 H 0.0 **** 0.06
8798 H 36.654052505924234 35.242293548477775 91.15773516457233 H 0.0 **** 0.06
8799 H 35.15068329849647 36.12536775123334 90.79789249085886 H 0.0 **** 0.06
8800 H 36.51775254207227 36.194519722403186 89.65918203151591 H 0.0 **** 0.06
8801 C 75.32427960644378 59.73297922767957 46.32315524900211 C 0.0 **** -0.24
8802 H 74.45167523674303 59.20915300220023 45.93400740837094 H 0.0 **** 0.06
8803 H 75.0081761783286 60.45336942469289 47.078632623312096 H 0.0 **** 0.06
8804 H 75.82720625666963 60.25480190342868 45.50993745429714 H 0.0 **** 0.06
8805 H 76.00943270348415 59.01314240011552 46.77162553824504 H 0.0 **** 0.06
8806 C 50.48209028123324 64.4835400425819 51.02005061493685 C 0.0 **** -0.24
8807 H 49.505410930267004 64.73181812972095 51.43485152897932 H 0.0 **** 0.06
8808 H 50.70727127131994 65.15831586008801 50.19396797576712 H 0.0 **** 0.06
8809 H 50.47135275074609 63.45505020621393 50.65699436147872 H 0.0 **** 0.06
8810 H 51.24318309897171 64.58762486093912 51.79302178740102 H 0.0 **** 0.06
8811 C 75.37201504126585 50.55259721317327 35.32331568804426 C 0.0 **** -0.24
8812 H 75.27771633036627 51.50644704411775 34.802218033604106 H 0.0 **** 0.06
8813 H 75.18340582213366 50.69948912072215 36.38641948186128 H 0.0 **** 0.06
8814 H 76.37924454761628 50.16044123935865 35.18263590043833 H 0.0 **** 0.06
8815 H 74.64634256793823 49.84552924208407 34.91936788555816 H 0.0 **** 0.06
8816 C 8.069010928804715 106.36296846372494 110.22492650272551 C 0.0 **** -0.24
8817 H 7.327908866991407 105.63712039263459 110.55829814453793 H 0.0 **** 0.06
8818 H 8.98340692052119 106.24230360856183 110.80795437042252 H 0.0 **** 0.06
8819 H 7.6793603271439395 107.37117930384414 110.36418409819842 H 0.0 **** 0.06
8820 H 8.28743023342625 106.1999658007714 109.1694780022206 H 0.0 **** 0.06
8821 C 78.66401088141262 63.55225778895747 14.939058049873598 C 0.0 **** -0.24
8822 H 78.28838962418624 63.76014977695558 15.940709663248104 H 0.0 **** 0.06
8823 H 78.06244437905164 62.7673480177103 14.480694895086732 H 0.0 **** 0.06
8824 H 79.70248527423823 63.22396379556981 15.00200641156674 H 0.0 **** 0.06
8825 H 78.60526962189303 64.45707646477402 14.334631890094236 H 0.0 **** 0.06
8826 C 16.13667599176756 86.08915557027242 106.90272415249184 C 0.0 **** -0.24
8827 H 16.257311489590975 87.1670172401517 106.79304871313188 H 0.0 **** 0.06
8828 H 16.27885744741765 85.60834428855361 105.93523756533097 H 0.0 **** 0.06
8829 H 15.135124983929842 85.8725552472612 107.2730769791655 H 0.0 **** 0.06
8830 H 16.87546077822637 85.71170941719117 107.6085461817463 H 0.0 **** 0.06
8831 C 67.37842499719545 24.70439924005987 96.31342706719968 C 0.0 **** -0.24
8832 H 67.23107007429653 23.739599557662842 96.79774765671121 H 0.0 **** 0.06
8833 H 67.54602470808234 25.469596525888704 97.07160109720019 H 0.0 **** 0.06
8834 H 66.49130067515796 24.95753442224617 95.73220297008177 H 0.0 **** 0.06
8835 H 68.24328929842201 24.651464698813868 95.65291892526045 H 0.0 **** 0.06
8836 C 89.69627599070006 56.608889475840385 86.8734049979262 C 0.0 **** -0.24
8837 H 89.563157731653 55.528411342431696 86.924472626511 H 0.0 **** 0.06
8838 H 88.96983971056105 57.09469710812937 87.5244669277995 H 0.0 **** 0.06
8839 H 89.54729537449097 56.94450472826975 85.84675627032212 H 0.0 **** 0.06
8840 H 90.70459784673963 56.86675715802073 87.19668144452027 H 0.0 **** 0.06
8841 C 17.76447595908118 97.45696483363542 84.17534515730819 C 0.0 **** -0.24
8842 H 17.2235605023171 96.74402588252298 83.55264704431318 H 0.0 **** 0.06
8843 H 17.07757057377671 97.9084301835253 84.89166174724622 H 0.0 **** 0.06
8844 H 18.19425241627866 98.23536391224778 83.54394708355042 H 0.0 **** 0.06
8845 H 18.561145991497312 96.94149982517848 84.7101282689768 H 0.0 **** 0.06
8846 C 71.14511285122617 91.99626102411145 69.35217836916087 C 0.0 **** -0.24
8847 H 72.21529362811003 92.20118733762703 69.36910970764905 H 0.0 **** 0.06
8848 H 70.65715347148151 92.54430567739544 70.15816911976589 H 0.0 **** 0.06
8849 H 70.9785566709273 90.92669163697528 69.48652809621757 H 0.0 **** 0.06
8850 H 70.73089652239364 92.31118423845743 68.39459883227875 H 0.0 **** 0.06
8851 C 57.90124612202902 24.960649509517708 106.12347340365355 C 0.0 **** -0.24
8852 H 58.25545639018088 25.217566702482685 105.12483429546427 H 0.0 **** 0.06
8853 H 58.1901515267561 25.74515219226501 106.8242570405159 H 0.0 **** 0.06
8854 H 58.34344285760966 24.014498504499414 106.43437318253429 H 0.0 **** 0.06
8855 H 56.81520324509802 24.868087587577776 106.11080232263276 H 0.0 **** 0.06
8856 C 42.87735809050446 102.78682044603701 5.138201281741999 C 0.0 **** -0.24
8857 H 43.606153069231794 102.62583923999762 5.932785662456709 H 0.0 **** 0.06
8858 H 42.547354819624445 101.82342585251996 4.748265205416786 H 0.0 **** 0.06
8859 H 43.33573713423024 103.3658033033245 4.3373468546389375 H 0.0 **** 0.06
8860 H 42.02125962810928 103.33129619224763 5.536409725022409 H 0.0 **** 0.06
8861 C 61.916301517881 41.58523895136085 8.79824985499505 C 0.0 **** -0.24
8862 H 60.93173826750057 41.243283697246966 9.116682229146818 H 0.0 **** 0.06
8863 H 61.82153338997205 42.543252582416926 8.286533816600809 H 0.0 **** 0.06
8864 H 62.35223882999161 40.852305605497406 8.118680275237466 H 0.0 **** 0.06
8865 H 62.55995032740645 41.70090503427775 9.669889068259465 H 0.0 **** 0.06
8866 C 8.587142500734899 28.06143504205579 65.22094698629434 C 0.0 **** -0.24
8867 H 7.878366082048501 27.24440151095547 65.0841346449863 H 0.0 **** 0.06
8868 H 8.514482669432141 28.437289957060727 66.24164382501101 H 0.0 **** 0.06
8869 H 8.35561030536644 28.863057196983164 64.52032148360496 H 0.0 **** 0.06
8870 H 9.598440791713358 27.69882025106085 65.0369832205615 H 0.0 **** 0.06
8871 C 88.30557784866627 70.25339324409214 102.79723221992018 C 0.0 **** -0.24
8872 H 89.32592028636938 70.53137855579081 103.06344816766443 H 0.0 **** 0.06
8873 H 87.76834572778742 71.13595480519365 102.44891028275325 H 0.0 **** 0.06
8874 H 87.80206631468886 69.84152218980273 103.67178110564964 H 0.0 **** 0.06
8875 H 88.32880597905825 69.50470544751477 102.0048835141393 H 0.0 **** 0.06
8876 C 83.44340452076011 57.605874507568764 26.316985292544814 C 0.0 **** -0.24
8877 H 84.1100608809437 58.46763122281089 26.303201162299388 H 0.0 **** 0.06
8878 H 82.72017089972815 57.72026359386303 27.125571565991095 H 0.0 **** 0.06
8879 H 84.02632196267567 56.698782410018154 26.4763231920314 H 0.0 **** 0.06
8880 H 82.91686437953723 57.537518885475535 25.36518470234674 H 0.0 **** 0.06
8881 C 11.343607093653674 53.37098083663679 19.297882581021156 C 0.0 **** -0.24
8882 H 10.39589661778038 52.86649250512059 19.487093541367997 H 0.0 **** 0.06
8883 H 11.588885050899592 54.013831063386505 20.14342779815385 H 0.0 **** 0.06
8884 H 11.25947631139519 53.97476642335991 18.394349869386645 H 0.0 **** 0.06
8885 H 12.1303689570735 52.62821320021746 19.165054075758164 H 0.0 **** 0.06
8886 C 91.84106575725525 94.19557749675195 78.62742286934309 C 0.0 **** -0.24
8887 H 92.19723939665374 95.13954125708736 79.03969357612385 H 0.0 **** 0.06
8888 H 90.80554364279976 94.03606468439278 78.92699918431026 H 0.0 **** 0.06
8889 H 92.45913471087997 93.3791194437336 79.00206864240519 H 0.0 **** 0.06
8890 H 91.90335192272823 94.22867422703368 77.53958857853704 H 0.0 **** 0.06
8891 C 35.23998066721947 0.4063454637463746 62.988659843660884 C 0.0 **** -0.24
8892 H 34.94520974673114 -0.10415640527265602 63.90491650799524 H 0.0 **** 0.06
8893 H 36.162824554024496 0.9609127196237379 63.161953733285515 H 0.0 **** 0.06
8894 H 34.45128536264157 1.0974698393195066 62.688892790722775 H 0.0 **** 0.06
8895 H 35.399283257716746 -0.32705778934376184 62.198617626906156 H 0.0 **** 0.06
8896 C 82.65565030424361 61.71829231409657 110.58153002834366 C 0.0 **** -0.24
8897 H 83.48304368841787 62.288129463486825 110.15745189951745 H 0.0 **** 0.06
8898 H 82.85615911229272 61.514776622040415 111.63333227201304 H 0.0 **** 0.06
8899 H 82.54913676119989 60.77662746058019 110.04272897554829 H 0.0 **** 0.06
8900 H 81.73501022732526 62.29428774372059 110.49159969006399 H 0.0 **** 0.06
8901 C 50.65823135079603 99.93792587739233 50.895291725585196 C 0.0 **** -0.24
8902 H 51.478393287934125 100.21097801073361 50.23109421364228 H 0.0 **** 0.06
8903 H 50.3584306906977 98.90803826229646 50.698752886941236 H 0.0 **** 0.06
8904 H 49.811981750199465 100.60240288025099 50.720267935352524 H 0.0 **** 0.06
8905 H 50.98411967435308 100.030284356288 51.931051866404516 H 0.0 **** 0.06
8906 C 107.75757772683201 54.79729992471848 85.12770560979942 C 0.0 **** -0.24
8907 H 108.27413999472857 55.63599287215413 84.66038560920589 H 0.0 **** 0.06
8908 H 108.02984235887911 53.87375571962683 84.61630020392892 H 0.0 **** 0.06
8909 H 106.68045525535855 54.94890659558131 85.0564034533569 H 0.0 **** 0.06
8910 H 108.04664099971231 54.731644189700674 86.17663703736429 H 0.0 **** 0.06
8911 C 81.94434386583484 94.59369078265374 99.63660972573552 C 0.0 **** -0.24
8912 H 81.84990933202539 93.94422313994741 98.76558999961998 H 0.0 **** 0.06
8913 H 82.33475345627525 95.56295391433798 99.32569856688238 H 0.0 **** 0.06
8914 H 82.62620466394765 94.13960777500628 100.35493263902742 H 0.0 **** 0.06
8915 H 80.96574882523578 94.72623711894514 100.09789553650631 H 0.0 **** 0.06
8916 C 28.043914785354303 19.25096235425084 99.80501254056472 C 0.0 **** -0.24
8917 H 28.19954542143097 20.145434597063936 100.40822967031016 H 0.0 **** 0.06
8918 H 27.883407287475364 18.394843617490807 100.45937205377379 H 0.0 **** 0.06
8919 H 28.92247569836988 19.075307562573567 99.18409506210688 H 0.0 **** 0.06
8920 H 27.171073634056526 19.39080602977166 99.1670019753659 H 0.0 **** 0.06
8921 C 33.5901584109489 28.107868769992365 93.0347897152594 C 0.0 **** -0.24
8922 H 32.68633675193992 28.226804600035493 93.63245774594517 H 0.0 **** 0.06
8923 H 34.391329884118115 27.716027014988327 93.66182458420988 H 0.0 **** 0.06
8924 H 33.88596816604733 29.075346110891786 92.62848244035851 H 0.0 **** 0.06
8925 H 33.3953677396238 27.413979864845288 92.21732892311041 H 0.0 **** 0.06
8926 C 97.62669161395536 84.89983355677097 27.21978680340851 C 0.0 **** -0.24
8927 H 98.54854871185705 84.62012096686016 26.709834111189423 H 0.0 **** 0.06
8928 H 97.8140658292208 85.75759756880873 27.865080647887794 H 0.0 **** 0.06
8929 H 97.27603600413488 84.06127082030648 27.822675396910597 H 0.0 **** 0.06
8930 H 96.86796630601373 85.15811651675966 26.481445976683446 H 0.0 **** 0.06
8931 C 5.994660183395553 110.36359576923101 14.633026116570079 C 0.0 **** -0.24
8932 H 6.878091849406957 110.93716422031818 14.915421538263502 H 0.0 **** 0.06
8933 H 5.971712323385702 109.4317060733801 15.197408384583554 H 0.0 **** 0.06
8934 H 6.032432882768319 110.14179934733423 13.566675358765465 H 0.0 **** 0.06
8935 H 5.099399432221219 110.94513125728164 14.852473235314946 H 0.0 **** 0.06
8936 C 3.2985352064962115 81.46292163567881 35.620148978214175 C 0.0 **** -0.24
8937 H 3.404011319668939 80.89656298590981 34.695697806957575 H 0.0 **** 0.06
8938 H 2.663035509075911 82.33136505331083 35.44475628980219 H 0.0 **** 0.06
8939 H 4.280783952223615 81.79376159336596 35.95781112278889 H 0.0 **** 0.06
8940 H 2.8469644686479825 80.83008734706749 36.384467006601795 H 0.0 **** 0.06
8941 C 101.0986697414364 51.47121720109497 17.06726614844348 C 0.0 **** -0.24
8942 H 101.09296017137933 52.19099549804811 17.88576354663664 H 0.0 **** 0.06
8943 H 101.88569108505172 50.735991663536275 17.235201274784373 H 0.0 **** 0.06
8944 H 101.28219975959911 51.99176992919543 16.127332650181074 H 0.0 **** 0.06
8945 H 100.1332617417462 50.96682194768015 17.020348752944017 H 0.0 **** 0.06
8946 C 17.851165798650072 42.71733700116502 73.51710821913127 C 0.0 **** -0.24
8947 H 17.249939493034702 42.98540596557805 74.38622695867622 H 0.0 **** 0.06
8948 H 17.313935198023216 41.98365019979343 72.91514442008446 H 0.0 **** 0.06
8949 H 18.799293478839104 42.29304341495548 73.84859319172625 H 0.0 **** 0.06
8950 H 18.04150910905821 43.60839532697065 72.91929566896823 H 0.0 **** 0.06
8951 C 40.65237783098286 80.70684268648193 66.68355171196865 C 0.0 **** -0.24
8952 H 39.966158839301954 80.66327318603498 65.8376494731917 H 0.0 **** 0.06
8953 H 41.605477391753595 81.12132723493073 66.3562107073829 H 0.0 **** 0.06
8954 H 40.80787672988765 79.70312541107 67.07745022480395 H 0.0 **** 0.06
8955 H 40.228502975331025 81.34113040703002 67.46164845762632 H 0.0 **** 0.06
8956 C 93.5605632791422 10.89686304317716 74.87435570033517 C 0.0 **** -0.24
8957 H 92.64683726058936 11.046162470273334 75.44900497977574 H 0.0 **** 0.06
8958 H 93.46469649306812 11.387333683896571 73.90525428903072 H 0.0 **** 0.06
8959 H 93.72606120502178 9.829151872100063 74.72638019918446 H 0.0 **** 0.06
8960 H 94.40439382634906 11.323173973305074 75.4162609976704 H 0.0 **** 0.06
8961 C 17.265607472557804 38.97834834319974 92.12178144279235 C 0.0 **** -0.24
8962 H 18.056826509566747 38.89611968490915 91.37638269696237 H 0.0 **** 0.06
8963 H 17.688401168516805 38.839989312391 93.11668778923263 H 0.0 **** 0.06
8964 H 16.511539806111614 38.212155856368604 91.93732682118718 H 0.0 **** 0.06
8965 H 16.805426622158848 39.963928905214786 92.05601751662701 H 0.0 **** 0.06
8966 C 47.61913800067955 85.15927951801439 29.01469267102493 C 0.0 **** -0.24
8967 H 47.58486220275957 85.44362448779793 30.0668454885475 H 0.0 **** 0.06
8968 H 48.4800957528402 85.63123058327724 28.539670126847682 H 0.0 **** 0.06
8969 H 46.70540343229132 85.48743544617949 28.519771279904973 H 0.0 **** 0.06
8970 H 47.70795787240298 84.07606359094353 28.933645406491223 H 0.0 **** 0.06
8971 C 106.55404491564238 9.217050578407253 111.05150639202435 C 0.0 **** -0.24
8972 H 107.06252977552289 10.181001407575025 111.0274575003661 H 0.0 **** 0.06
8973 H 107.25268867568064 8.446291860553075 111.37982543013375 H 0.0 **** 0.06
8974 H 106.18712526084684 8.974830311341165 110.05407784703402 H 0.0 **** 0.06
8975 H 105.71383595051918 9.266078734159592 111.74466479056353 H 0.0 **** 0.06
8976 C 106.74592681348568 47.803877322136934 16.26827761359317 C 0.0 **** -0.24
8977 H 107.42410792118918 48.44674841739951 15.708852533639913 H 0.0 **** 0.06
8978 H 106.3769309640195 48.33897604144673 17.144048068970164 H 0.0 **** 0.06
8979 H 107.27628378987038 46.90660412411964 16.586980714831043 H 0.0 **** 0.06
8980 H 105.90494960018623 47.52222560243404 15.633398796420522 H 0.0 **** 0.06
8981 C 92.22062077655428 83.16683468453965 46.62423447358469 C 0.0 **** -0.24
8982 H 92.15381854232615 82.07951963371806 46.65183512686846 H 0.0 **** 0.06
8983 H 91.60323495873965 83.58942062818946 47.41772381425551 H 0.0 **** 0.06
8984 H 91.86861901460475 83.52789708085874 45.65859167325982 H 0.0 **** 0.06
8985 H 93.25774480817549 83.47003153870773 46.770763831430656 H 0.0 **** 0.06
8986 C 42.72322765968721 33.04228754918904 58.793589305722 C 0.0 **** -0.24
8987 H 43.666055578579545 32.52736289834007 58.60824495790629 H 0.0 **** 0.06
8988 H 41.90245445557801 32.45630349841218 58.37793136145843 H 0.0 **** 0.06
8989 H 42.74645781608078 34.02376749552292 58.320304138332794 H 0.0 **** 0.06
8990 H 42.57908267617714 33.159800812162814 59.867698358617595 H 0.0 **** 0.06
8991 C 5.789615172722392 79.83986697936461 18.518866935752474 C 0.0 **** -0.24
8992 H 5.252933255920567 80.13931316989468 19.419102954734107 H 0.0 **** 0.06
8993 H 5.166261538339256 79.1667230619696 17.93034599333384 H 0.0 **** 0.06
8994 H 6.711927546267788 79.3302751792229 18.799007103116285 H 0.0 **** 0.06
8995 H 6.028130234058295 80.72419352829871 17.928150847611118 H 0.0 **** 0.06
8996 C 76.5941728938491 77.74222258442242 64.91144197160168 C 0.0 **** -0.24
8997 H 77.55140568906728 77.52226879150197 65.38449388660561 H 0.0 **** 0.06
8998 H 76.76342769354437 78.07871984182998 63.888332579510944 H 0.0 **** 0.06
8999 H 76.0837499825397 78.52490177089504 65.47209792274847 H 0.0 **** 0.06
9000 H 75.97895229714067 76.84195056879557 64.90127531295965 H 0.0 **** 0.06
9001 C 39.94133862423101 89.1975678754172 70.23497902786406 C 0.0 **** -0.24
9002 H 40.05752423269169 88.76316520025077 69.24213835558444 H 0.0 **** 0.06
9003 H 38.97480445496251 89.69806602717756 70.30115110689471 H 0.0 **** 0.06
9004 H 40.738379808939555 89.91979657046389 70.41181922401222 H 0.0 **** 0.06
9005 H 39.99365285666241 88.4083369319246 70.98524508226308 H 0.0 **** 0.06
9006 C 54.72700615828967 2.2970289633646868 5.633169716862341 C 0.0 **** -0.24
9007 H 55.54656200924131 2.951439038169225 5.9297907543124495 H 0.0 **** 0.06
9008 H 54.28229634433154 2.667773480126881 4.70830312333328 H 0.0 **** 0.06
9009 H 53.971138826605056 2.2820027508779024 6.418641042614183 H 0.0 **** 0.06
9010 H 55.10697769173771 1.2880302447231946 5.475155252827108 H 0.0 **** 0.06
9011 C 100.76793800773112 101.8116682900322 48.170432614599335 C 0.0 **** -0.24
9012 H 99.73783984164857 101.47358852164786 48.061175190386436 H 0.0 **** 0.06
9013 H 101.43269006448133 100.9480177638496 48.19504720120858 H 0.0 **** 0.06
9014 H 100.86937181667349 102.37550485601457 49.097115318174424 H 0.0 **** 0.06
9015 H 101.03265794988334 102.44893908646401 47.32616564048979 H 0.0 **** 0.06
9016 C 6.510306174665541 60.936565776202194 100.82939225628738 C 0.0 **** -0.24
9017 H 5.574704889533381 60.9467122550003 101.38768932757623 H 0.0 **** 0.06
9018 H 7.334228910040402 60.711711678099014 101.50604674947044 H 0.0 **** 0.06
9019 H 6.670859906225777 61.91268176852595 100.37177511027329 H 0.0 **** 0.06
9020 H 6.460450172776104 60.173933350512335 100.05132308808453 H 0.0 **** 0.06
9021 C 51.7507794729618 112.67395407998771 97.14113107223659 C 0.0 **** -0.24
9022 H 52.558653623730706 112.93140458108624 97.82599527686406 H 0.0 **** 0.06
9023 H 51.92141485598851 111.67608292415618 96.73599385721346 H 0.0 **** 0.06
9024 H 51.721482100760205 113.39657598286226 96.3261472747214 H 0.0 **** 0.06
9025 H 50.80156731136766 112.69175283184613 97.67638788014733 H 0.0 **** 0.06
9026 C 18.020895039865827 54.53755484872471 62.629687080357876 C 0.0 **** -0.24
9027 H 16.990943861113905 54.89498126029659 62.639192346385634 H 0.0 **** 0.06
9028 H 18.688218704361578 55.344959301875605 62.93316794432176 H 0.0 **** 0.06
9029 H 18.2825709426875 54.208451806866975 61.624036395371725 H 0.0 **** 0.06
9030 H 18.121675694646573 53.70176710868628 63.32333511920002 H 0.0 **** 0.06
9031 C 23.218938864672253 51.56128210077009 101.38749328686455 C 0.0 **** -0.24
9032 H 24.28422748962342 51.78953546765396 101.4264414040577 H 0.0 **** 0.06
9033 H 22.98797279775428 50.78125336887769 102.11410758412697 H 0.0 **** 0.06
9034 H 22.95804165971097 51.21574850999775 100.38704909062008 H 0.0 **** 0.06
9035 H 22.646305991320105 52.45860015240744 101.62298494559383 H 0.0 **** 0.06
9036 C 40.48869610907906 72.742124525914 103.4852479710431 C 0.0 **** -0.24
9037 H 41.28535602482248 72.09641593312276 103.85501924476662 H 0.0 **** 0.06
9038 H 39.89968315938245 72.20261866191612 102.74350841976934 H 0.0 **** 0.06
9039 H 40.924914847713524 73.63020616060257 103.0276557651807 H 0.0 **** 0.06
9040 H 39.847828082683634 73.03784138814837 104.31471044163985 H 0.0 **** 0.06
9041 C 60.81893944358569 112.1973237224136 100.4735741127588 C 0.0 **** -0.24
9042 H 60.38864384815372 111.55303221773094 101.24015779161664 H 0.0 **** 0.06
9043 H 61.50121799222592 112.90933456104244 100.93853644315928 H 0.0 **** 0.06
9044 H 60.02207056479551 112.73794836401913 99.96392098043981 H 0.0 **** 0.06
9045 H 61.36473173178831 111.5883730616435 99.75258154315239 H 0.0 **** 0.06
9046 C 57.78448886226489 77.56472101411069 34.33090779979773 C 0.0 **** -0.24
9047 H 56.70808534932063 77.68592481987133 34.210220215395026 H 0.0 **** 0.06
9048 H 58.28939075537475 78.47749485103651 34.0146936492454 H 0.0 **** 0.06
9049 H 58.12568824621682 76.72937262232927 33.719956574709244 H 0.0 **** 0.06
9050 H 58.01195396625079 77.36683563958584 35.37813001342175 H 0.0 **** 0.06
9051 C 80.09147862823988 6.674906270885799 84.340021300725 C 0.0 **** -0.24
9052 H 80.93984708483691 6.013442780042254 84.16737906030457 H 0.0 **** 0.06
9053 H 80.20060364509357 7.157760756487477 85.3116779926072 H 0.0 **** 0.06
9054 H 79.16860264944887 6.095724399703826 84.32315002976651 H 0.0 **** 0.06
9055 H 80.05841667224615 7.434491838908414 83.55847788839978 H 0.0 **** 0.06
9056 C 97.29319880897282 40.174437247759386 85.29214754585672 C 0.0 **** -0.24
9057 H 96.5318723148597 39.69686688572705 85.90917098607676 H 0.0 **** 0.06
9058 H 98.25807145330572 40.11687204313478 85.79662792835688 H 0.0 **** 0.06
9059 H 97.0280381179594 41.219018140187075 85.1316423844444 H 0.0 **** 0.06
9060 H 97.35534956965961 39.66418835935076 84.33140736479228 H 0.0 **** 0.06
9061 C 10.840005626029665 29.934285291472705 48.32097069193378 C 0.0 **** -0.24
9062 H 11.47786854402122 30.244452837081923 49.148990265673206 H 0.0 **** 0.06
9063 H 11.148014452905073 30.45005816447363 47.411220550214466 H 0.0 **** 0.06
9064 H 9.80290296060133 30.18265452216552 48.54809669004072 H 0.0 **** 0.06
9065 H 10.93202236335867 28.85712776563136 48.17670338346073 H 0.0 **** 0.06
9066 C 101.56750699372247 90.13614503212895 106.79336519052303 C 0.0 **** -0.24
9067 H 101.95459695356487 89.403569473819 107.501627716897 H 0.0 **** 0.06
9068 H 101.69645960935125 91.1381730974224 107.20222012169855 H 0.0 **** 0.06
9069 H 100.50819633634529 89.94807675570684 106.61811493797467 H 0.0 **** 0.06
9070 H 102.11217085909968 90.05387750590992 105.85262572847876 H 0.0 **** 0.06
9071 C 37.96816541470556 42.71977671437597 56.00151690954655 C 0.0 **** -0.24
9072 H 37.77773743544372 41.7334495114184 56.42477596925502 H 0.0 **** 0.06
9073 H 38.32378978889142 42.61206755221508 54.97592023756559 H 0.0 **** 0.06
9074 H 38.72464300563313 43.230998321849 56.596610592720225 H 0.0 **** 0.06
9075 H 37.0463189362491 43.30184096703519 56.007574625336275 H 0.0 **** 0.06
9076 C 69.04296351905984 96.76094668404977 17.12406409534401 C 0.0 **** -0.24
9077 H 68.14370738429787 96.15222713065987 17.222284976153702 H 0.0 **** 0.06
9078 H 69.57226010672525 96.48183273337978 16.212960962724992 H 0.0 **** 0.06
9079 H 69.68962206550515 96.5948047976255 17.98537179895399 H 0.0 **** 0.06
9080 H 68.76524127861998 97.81357341815834 17.076005077467585 H 0.0 **** 0.06
9081 C 90.12192568167956 96.66502484519722 62.715892443515145 C 0.0 **** -0.24
9082 H 89.817308089849 96.66905853289188 63.76269198014364 H 0.0 **** 0.06
9083 H 89.45283741434801 96.01959318092472 62.1458921741816 H 0.0 **** 0.06
9084 H 91.14250195073492 96.29264987228726 62.63620390942896 H 0.0 **** 0.06
9085 H 90.07296658133657 97.67957193045908 62.31980074237197 H 0.0 **** 0.06
9086 C 11.436819135230643 110.90493156988771 103.94834013378488 C 0.0 **** -0.24
9087 H 12.150126605897622 110.75984552023704 103.13782683611109 H 0.0 **** 0.06
9088 H 11.837196235619889 110.4735131983785 104.86585894290786 H 0.0 **** 0.06
9089 H 10.49646172023009 110.4143516770061 103.69619590126905 H 0.0 **** 0.06
9090 H 11.262770110683405 111.97088994635845 104.09301919855014 H 0.0 **** 0.06
9091 C 69.76609056418155 91.79049165804946 14.738470367859463 C 0.0 **** -0.24
9092 H 69.13777320226208 92.37047614762474 14.06212378287681 H 0.0 **** 0.06
9093 H 70.03670360130567 92.40461629460401 15.598430836300423 H 0.0 **** 0.06
9094 H 70.66953540173319 91.47716256665743 14.216049416119816 H 0.0 **** 0.06
9095 H 69.21835415947103 90.91113123967804 15.07723942271788 H 0.0 **** 0.06
9096 C 72.11350634944299 8.813161969653322 12.454430772157764 C 0.0 **** -0.24
9097 H 72.44848965262057 9.12077848963861 13.444541674806786 H 0.0 **** 0.06
9098 H 71.47692274333863 9.589849403451296 12.029545630308078 H 0.0 **** 0.06
9099 H 71.54992249761892 7.883457485267513 12.533974564065147 H 0.0 **** 0.06
9100 H 72.97925970418584 8.658846062285306 11.810433010011096 H 0.0 **** 0.06
9101 C 43.6433167513419 21.89747798539517 97.89316177394488 C 0.0 **** -0.24
9102 H 44.095008141509936 21.089597250493625 97.31666801926622 H 0.0 **** 0.06
9103 H 44.39256361154855 22.33592182904391 98.55175078469492 H 0.0 **** 0.06
9104 H 42.821140603223 21.501159879219898 98.49030146933899 H 0.0 **** 0.06
9105 H 43.26413831212807 22.660101473860067 97.21378231508282 H 0.0 **** 0.06
9106 C 47.18275466482777 82.15220153629613 79.00246192413238 C 0.0 **** -0.24
9107 H 47.50180307146229 83.19197542128347 78.93472907845967 H 0.0 **** 0.06
9108 H 46.169569159736426 82.1093404051959 79.40249375125663 H 0.0 **** 0.06
9109 H 47.85863896477363 81.60842114189103 79.66333086072865 H 0.0 **** 0.06
9110 H 47.202905405095976 81.70095032639236 78.0106576790154 H 0.0 **** 0.06
9111 C 84.25349556142908 73.39207960626891 102.20878181634532 C 0.0 **** -0.24
9112 H 84.64239773519697 74.21963935668077 101.61574022320852 H 0.0 **** 0.06
9113 H 83.24121379657512 73.62626938620224 102.53866237197906 H 0.0 **** 0.06
9114 H 84.89219628856742 73.23566362017996 103.0773920518846 H 0.0 **** 0.06
9115 H 84.23781608103536 72.4860373463334 101.60179330625778 H 0.0 **** 0.06
9116 C 103.70818535231138 64.43990037094639 100.80030953952894 C 0.0 **** -0.24
9117 H 103.8811627570185 63.441496834366575 100.39730501802558 H 0.0 **** 0.06
9118 H 103.67178113094258 64.39033859213069 101.88868436742644 H 0.0 **** 0.06
9119 H 102.76117623078653 64.82486009848364 100.42173836406329 H 0.0 **** 0.06
9120 H 104.51834801310639 65.10131124624377 100.4928920385762 H 0.0 **** 0.06
9121 C 2.9782543112201214 12.72830306950388 42.46601212848054 C 0.0 **** -0.24
9122 H 2.2246973951260642 12.950156881418536 41.71102789593638 H 0.0 **** 0.06
9123 H 3.752217176984491 12.094406037974778 42.03256725254484 H 0.0 **** 0.06
9124 H 2.510478881627039 12.209468868247512 43.303269950110504 H 0.0 **** 0.06
9125 H 3.4247717185126287 13.657530557841 42.8187809243945 H 0.0 **** 0.06
9126 C 78.06891510719174 65.74974120287033 19.110022294432724 C 0.0 **** -0.24
9127 H 78.42221740634466 65.41631508969249 20.085368825898257 H 0.0 **** 0.06
9128 H 77.06955702386426 65.35130825128022 18.930927136371196 H 0.0 **** 0.06
9129 H 78.74749847367298 65.39159209224448 18.33560235668736 H 0.0 **** 0.06
9130 H 78.03534532834863 66.83880778255707 19.088356198886146 H 0.0 **** 0.06
9131 C 3.8572564191776593 88.55065973633845 5.384839502066228 C 0.0 **** -0.24
9132 H 3.6503911735147057 87.56168199130349 5.793832389655108 H 0.0 **** 0.06
9133 H 4.448762092850984 88.45037276993847 4.474346778747275 H 0.0 **** 0.06
9134 H 4.414143370849928 89.13604921177262 6.116564506273335 H 0.0 **** 0.06
9135 H 2.9180634711189555 89.05286794403821 5.15549294394134 H 0.0 **** 0.06
9136 C 99.64335738702462 29.814010470707785 2.0517069430947146 C 0.0 **** -0.24
9137 H 98.58307901676656 30.04157044589141 1.9399140726421678 H 0.0 **** 0.06
9138 H 99.78388762204955 29.147410090190476 2.9032077565610876 H 0.0 **** 0.06
9139 H 100.19706034767006 30.738101550786155 2.2174178072267665 H 0.0 **** 0.06
9140 H 100.00751327026614 29.329189168418353 1.145673161655651 H 0.0 **** 0.06
9141 C 47.92524500590284 106.9001947350377 7.788273553185562 C 0.0 **** -0.24
9142 H 47.88025720375194 107.41990568974708 8.74543238053812 H 0.0 **** 0.06
9143 H 46.91449781077017 106.68403499312151 7.44377043032938 H 0.0 **** 0.06
9144 H 48.47682786026846 105.96668241381244 7.907641030645323 H 0.0 **** 0.06
9145 H 48.43212590265267 107.52985632369823 7.0569320193945515 H 0.0 **** 0.06
9146 C 42.89391235939493 16.09222742953321 71.38115751179214 C 0.0 **** -0.24
9147 H 42.23106782410562 16.139156092312874 70.5176419285275 H 0.0 **** 0.06
9148 H 43.664245574201175 16.857848231914105 71.29079770309085 H 0.0 **** 0.06
9149 H 43.36157230993612 15.109287345136295 71.42697548830722 H 0.0 **** 0.06
9150 H 42.31745559685959 16.262415024234485 72.29033195035367 H 0.0 **** 0.06
9151 C 21.500706099139066 95.71444480732339 69.98329477266708 C 0.0 **** -0.24
9152 H 21.006824120884854 94.74427020927524 70.04640807943161 H 0.0 **** 0.06
9153 H 22.450809901233665 95.60498170961819 69.46057403017375 H 0.0 **** 0.06
9154 H 21.680142172082828 96.09656658581375 70.98772046635435 H 0.0 **** 0.06
9155 H 20.86326942113238 96.41103177180628 69.4370717640416 H 0.0 **** 0.06
9156 C 55.84737779957355 76.42855326696204 61.94156993991237 C 0.0 **** -0.24
9157 H 55.2590823017137 75.52501637931053 61.78034056870683 H 0.0 **** 0.06
9158 H 56.70284951657474 76.43114920936137 61.266028085200674 H 0.0 **** 0.06
9159 H 56.19792375289034 76.45467228264724 62.97313365478763 H 0.0 **** 0.06
9160 H 55.227326521498824 77.30412197968079 61.74664357679174 H 0.0 **** 0.06
9161 C 102.8251333290998 82.73646903204198 94.77123773856047 C 0.0 **** -0.24
9162 H 102.74772701721614 82.66181268594903 95.85567356061813 H 0.0 **** 0.06
9163 H 103.86616384729797 82.61150348152637 94.47226700842484 H 0.0 **** 0.06
9164 H 102.46788734991421 83.71423840559166 94.44821645998093 H 0.0 **** 0.06
9165 H 102.21849502229938 81.95793122866758 94.30967713559156 H 0.0 **** 0.06
9166 C 9.57642592753821 52.48242288062755 109.04073950058174 C 0.0 **** -0.24
9167 H 10.08078326045677 52.0109551764306 108.19733552391284 H 0.0 **** 0.06
9168 H 8.590271279967311 52.82628513755847 108.72787183068547 H 0.0 **** 0.06
9169 H 10.16507854343294 53.331451256309975 109.38760443195827 H 0.0 **** 0.06
9170 H 9.470090407611295 51.759438047054346 109.8496072817891 H 0.0 **** 0.06
9171 C 63.90807709373604 88.30541239706832 77.06253595717263 C 0.0 **** -0.24
9172 H 64.32565958917789 88.71669401057 76.14294542633769 H 0.0 **** 0.06
9173 H 62.83639713018326 88.14979823866372 76.935155713028 H 0.0 **** 0.06
9174 H 64.08032720266738 89.00150494080589 77.88248801149896 H 0.0 **** 0.06
9175 H 64.38987448002266 87.35380906726698 77.28519875825864 H 0.0 **** 0.06
9176 C 21.94541938483198 48.57191763750114 27.605670996694556 C 0.0 **** -0.24
9177 H 21.691517642852375 48.19133492551273 26.61620290278782 H 0.0 **** 0.06
9178 H 21.11352101643027 48.39126884809284 28.287754285374177 H 0.0 **** 0.06
9179 H 22.138128365211145 49.64275874548259 27.543285590737128 H 0.0 **** 0.06
9180 H 22.835211747944044 48.062603429895375 27.97442555186825 H 0.0 **** 0.06
9181 C 46.042909096757235 87.52856805177561 38.13449041641479 C 0.0 **** -0.24
9182 H 46.28380711697655 86.94738886462716 39.02515047571103 H 0.0 **** 0.06
9183 H 45.75305860244122 88.53767795544809 38.4270314755272 H 0.0 **** 0.06
9184 H 45.2189905221065 87.05270943002233 37.601771729707366 H 0.0 **** 0.06
9185 H 46.91629626285293 87.57565602749645 37.48417590739706 H 0.0 **** 0.06
9186 C 90.93725648694868 60.28689621235014 14.91712443170752 C 0.0 **** -0.24
9187 H 91.72920784953664 60.749197588568904 14.327562824526694 H 0.0 **** 0.06
9188 H 91.37835953151131 59.62936833681175 15.665668042538385 H 0.0 **** 0.06
9189 H 90.28716375627863 59.70717657295444 14.261088589478732 H 0.0 **** 0.06
9190 H 90.35330702798882 61.06293839168109 15.412498013055767 H 0.0 **** 0.06
9191 C 24.19490550474572 72.30539987543852 107.48045720431098 C 0.0 **** -0.24
9192 H 24.29262148091587 71.69493890004651 106.58347487411308 H 0.0 **** 0.06
9193 H 25.058884715813292 72.96633086981836 107.56577820492562 H 0.0 **** 0.06
9194 H 24.144850212388434 71.65869164310402 108.3561359629455 H 0.0 **** 0.06
9195 H 23.28547303676106 72.90188282765752 107.41669987716784 H 0.0 **** 0.06
9196 C 110.14090000042955 9.594034876740835 70.55649773610656 C 0.0 **** -0.24
9197 H 110.23848727370965 9.591504459559758 71.64171368738988 H 0.0 **** 0.06
9198 H 111.12990387612936 9.674192115509669 70.10360190983943 H 0.0 **** 0.06
9199 H 109.52988813517834 10.442444688832168 70.24812346971811 H 0.0 **** 0.06
9200 H 109.66720110524938 8.66756702347044 70.23202422658602 H 0.0 **** 0.06
9201 C 37.54712410205369 99.26671549413575 90.16213438545617 C 0.0 **** -0.24
9202 H 37.274050680830825 99.86853848175286 89.29539025805062 H 0.0 **** 0.06
9203 H 38.44616548598216 98.69295738200458 89.93763138866439 H 0.0 **** 0.06
9204 H 36.73083167970728 98.58453308275466 90.4011935229764 H 0.0 **** 0.06
9205 H 37.735460643479556 99.92088608278792 91.0132998017479 H 0.0 **** 0.06
9206 C 14.042335182221052 19.153293123927995 85.24684044277456 C 0.0 **** -0.24
9207 H 13.646853110122436 19.92402946139282 84.58548365313766 H 0.0 **** 0.06
9208 H 13.464922975841432 18.236208162269207 85.12290576825671 H 0.0 **** 0.06
9209 H 13.971416070339558 19.49081795065578 86.28132191551674 H 0.0 **** 0.06
9210 H 15.086071242666208 18.961364026323736 84.9992084262501 H 0.0 **** 0.06
9211 C 57.20234270651353 105.75588666861452 111.82793125601967 C 0.0 **** -0.24
9212 H 56.372588239204994 105.35704914445299 112.41195229480421 H 0.0 **** 0.06
9213 H 57.966540000138714 104.98780017723033 111.71157407609294 H 0.0 **** 0.06
9214 H 57.62788724336965 106.61719145472306 112.34299951312629 H 0.0 **** 0.06
9215 H 56.84106628329825 106.06185748252676 110.84566263332547 H 0.0 **** 0.06
9216 C 86.12585315035233 82.72216460755277 104.71339726212608 C 0.0 **** -0.24
9217 H 85.1880803431128 83.27409457551252 104.64876856171051 H 0.0 **** 0.06
9218 H 85.93626272940685 81.73245817232188 105.12936607853473 H 0.0 **** 0.06
9219 H 86.82059645515994 83.26151600194635 105.35791355568867 H 0.0 **** 0.06
9220 H 86.55754381724307 82.62199114005756 103.71795626016046 H 0.0 **** 0.06
9221 C 40.05837726309005 77.18217163122043 55.284291581817655 C 0.0 **** -0.24
9222 H 39.768532790909006 77.73988987622263 56.17460439703498 H 0.0 **** 0.06
9223 H 40.82559228145634 76.45331339634271 55.5460895862694 H 0.0 **** 0.06
9224 H 40.44968083466114 77.86985106370742 54.535944880100686 H 0.0 **** 0.06
9225 H 39.18737866299904 76.66323498259086 54.881887950024804 H 0.0 **** 0.06
9226 C 81.69092731553735 30.8511826767172 89.1493641341591 C 0.0 **** -0.24
9227 H 82.76629308074064 31.00807003369073 89.2322568736615 H 0.0 **** 0.06
9228 H 81.23079731316932 31.724963029673518 88.68719457038537 H 0.0 **** 0.06
9229 H 81.26770105500918 30.698361502709645 90.14149242053116 H 0.0 **** 0.06
9230 H 81.49949325102449 29.971799755786208 88.53314975865132 H 0.0 **** 0.06
9231 C 91.448176342712 91.8369708936448 110.25265264159837 C 0.0 **** -0.24
9232 H 91.21501901734419 91.37932489256329 111.21424205974839 H 0.0 **** 0.06
9233 H 90.61504537056467 92.46647146702344 109.93846279886934 H 0.0 **** 0.06
9234 H 91.6148956225903 91.05650049207526 109.51013325944317 H 0.0 **** 0.06
9235 H 92.34694603075863 92.4459942813927 110.34886564627573 H 0.0 **** 0.06
9236 C 53.87629109441821 81.07709891537769 53.58193962614524 C 0.0 **** -0.24
9237 H 54.41139147364734 80.17839654786573 53.274144134890605 H 0.0 **** 0.06
9238 H 53.778288667174536 81.75053688857813 52.73037094366549 H 0.0 **** 0.06
9239 H 54.429988668574566 81.57504198134268 54.378126230124906 H 0.0 **** 0.06
9240 H 52.88580462736323 80.80349829238077 53.945350744448945 H 0.0 **** 0.06
9241 C 9.27594520140058 109.89740055696672 64.56042837386866 C 0.0 **** -0.24
9242 H 8.349813686345438 109.39429110538231 64.28312769703689 H 0.0 **** 0.06
9243 H 9.79811386414789 110.21997646271137 63.65950602542915 H 0.0 **** 0.06
9244 H 9.909489701859364 109.20814525566453 65.12065690789586 H 0.0 **** 0.06
9245 H 9.046945435085808 110.76492620606018 65.1791575000301 H 0.0 **** 0.06
9246 C 71.04591647169912 5.696430128188837 32.410505974293756 C 0.0 **** -0.24
9247 H 70.07777465604278 6.131818584449803 32.164354253277196 H 0.0 **** 0.06
9248 H 70.94987658490135 5.077646402405961 33.3026362481323 H 0.0 **** 0.06
9249 H 71.76601638275429 6.493622934222344 32.59659512255658 H 0.0 **** 0.06
9250 H 71.39086206378082 5.082709947674886 31.57794035639472 H 0.0 **** 0.06
9251 C 105.91376657664378 42.7191193350497 7.763447359541928 C 0.0 **** -0.24
9252 H 105.84229142379877 41.63256271735338 7.732668681472262 H 0.0 **** 0.06
9253 H 105.3849252595499 43.094838514574576 8.639131277457352 H 0.0 **** 0.06
9254 H 105.46706642388259 43.137643488291474 6.861302735434634 H 0.0 **** 0.06
9255 H 106.9619380181106 43.012501417004955 7.818809403430308 H 0.0 **** 0.06
9256 C 84.62525434181649 82.65978887859686 54.081031481791115 C 0.0 **** -0.24
9257 H 83.7647740370773 82.57355233326257 54.74460837898607 H 0.0 **** 0.06
9258 H 84.28049958473895 82.80386298546523 53.05721549126841 H 0.0 **** 0.06
9259 H 85.22073233572871 81.74838277331818 54.13956602345283 H 0.0 **** 0.06
9260 H 85.23382608305889 83.51126869695818 54.38321828579686 H 0.0 **** 0.06
9261 C 91.74789014455936 100.48957819487146 47.48308106628912 C 0.0 **** -0.24
9262 H 92.44701656216318 99.68692918903659 47.717222478175586 H 0.0 **** 0.06
9263 H 92.28697706922102 101.43501191531456 47.42250252935813 H 0.0 **** 0.06
9264 H 90.99004685929674 100.551253935702 48.264107986075516 H 0.0 **** 0.06
9265 H 91.26742258636958 100.28285997859692 46.52627912852165 H 0.0 **** 0.06
9266 C 86.43538171920358 12.413867174340794 108.57329122625896 C 0.0 **** -0.24
9267 H 85.98104490195618 12.109424385343317 109.51616663451534 H 0.0 **** 0.06
9268 H 87.46256127228887 12.733823909450507 108.7518838205039 H 0.0 **** 0.06
9269 H 85.86609174824025 13.241067138746118 108.14625412536938 H 0.0 **** 0.06
9270 H 86.43066666291654 11.573844936048644 107.88004546031041 H 0.0 **** 0.06
9271 C 77.99638999255083 4.316465247467249 48.017270516757065 C 0.0 **** -0.24
9272 H 78.19444914043271 4.1402959401430195 46.96004048838307 H 0.0 **** 0.06
9273 H 78.82616588043172 3.931150930575157 48.61074276151386 H 0.0 **** 0.06
9274 H 77.07630270262095 3.80802051112623 48.30394048502367 H 0.0 **** 0.06
9275 H 77.88940822709804 5.386693961795572 48.19253534319799 H 0.0 **** 0.06
9276 C 109.98257729169853 82.70312700461943 88.94345094220733 C 0.0 **** -0.24
9277 H 109.13862820172997 82.5377286040823 88.27359595472899 H 0.0 **** 0.06
9278 H 109.9966957098766 81.92639720219029 89.7084659166232 H 0.0 **** 0.06
9279 H 109.88477542446215 83.67928158867932 89.41746081260234 H 0.0 **** 0.06
9280 H 110.91171183974797 82.66784189091481 88.3732041239983 H 0.0 **** 0.06
9281 C 32.42449783856745 18.03064754979698 71.19180719169148 C 0.0 **** -0.24
9282 H 31.52020814923037 18.550253097362003 71.51045698139765 H 0.0 **** 0.06
9283 H 32.992356606009935 18.6702398978818 70.51630262190633 H 0.0 **** 0.06
9284 H 32.15071057587551 17.109141740564013 70.67744350511347 H 0.0 **** 0.06
9285 H 33.03237017503881 17.792083346674332 72.06434355927871 H 0.0 **** 0.06
9286 C 33.03762824396105 85.9041183797743 74.15454323355647 C 0.0 **** -0.24
9287 H 32.1619949839663 86.26748235858824 73.6181531603458 H 0.0 **** 0.06
9288 H 33.937289915140354 86.14967635659372 73.58904555440748 H 0.0 **** 0.06
9289 H 32.967072636677194 84.82324319539799 74.2747060790106 H 0.0 **** 0.06
9290 H 33.08536630487714 86.37679274559642 75.13615032214307 H 0.0 **** 0.06
9291 C 109.21710155920168 50.54645597911723 35.39483076333586 C 0.0 **** -0.24
9292 H 108.59357806887601 51.41570957298501 35.605149724606264 H 0.0 **** 0.06
9293 H 108.75547091911059 49.65680174058033 35.82415572573835 H 0.0 **** 0.06
9294 H 110.20407166290686 50.693053707345406 35.83576116483201 H 0.0 **** 0.06
9295 H 109.3156944616536 50.42236478127541 34.31715450707256 H 0.0 **** 0.06
9296 C 63.52396353987535 35.24485037967353 55.10204411566521 C 0.0 **** -0.24
9297 H 63.79169937762279 34.21160773460382 55.32480989487607 H 0.0 **** 0.06
9298 H 62.54800152155835 35.27031312067411 54.61737703974176 H 0.0 **** 0.06
9299 H 64.27151943260088 35.678306825458314 54.438525447526196 H 0.0 **** 0.06
9300 H 63.48450406861758 35.8171221637625 56.028343898219056 H 0.0 **** 0.06
9301 C 95.4402303277025 68.83080910686655 27.67342063677011 C 0.0 **** -0.24
9302 H 95.12028192739638 67.93205118974595 27.146723773777786 H 0.0 **** 0.06
9303 H 94.72809884647111 69.63407806659598 27.486720149487986 H 0.0 **** 0.06
9304 H 96.42663857273146 69.12887871606523 27.31635237668742 H 0.0 **** 0.06
9305 H 95.48687865240586 68.62732468937327 28.74340728867115 H 0.0 **** 0.06
9306 C 59.147947745310184 58.99006752112092 37.720984190595715 C 0.0 **** -0.24
9307 H 60.13268110425016 58.5536965056275 37.88684531170264 H 0.0 **** 0.06
9308 H 58.46686101997306 58.22011287370066 37.356736780228886 H 0.0 **** 0.06
9309 H 59.223672124118714 59.78709367722894 36.981554346625586 H 0.0 **** 0.06
9310 H 58.76812273866033 59.39727134910049 38.657616111078454 H 0.0 **** 0.06
9311 C 89.5762599981966 11.254727140627992 93.75404370562867 C 0.0 **** -0.24
9312 H 88.98624618701606 10.382726094721917 94.03439743114993 H 0.0 **** 0.06
9313 H 90.62084209309069 11.086383215893335 94.01971657125446 H 0.0 **** 0.06
9314 H 89.20324008182428 12.131833010542294 94.282621808205 H 0.0 **** 0.06
9315 H 89.49635293504122 11.416467780051136 92.67919199386793 H 0.0 **** 0.06
9316 C 80.40511287556095 15.456003812410358 109.6007684109377 C 0.0 **** -0.24
9317 H 80.47442827037861 15.476628950300025 108.51318054413944 H 0.0 **** 0.06
9318 H 81.35678944719774 15.770358500426056 110.03070595730685 H 0.0 **** 0.06
9319 H 80.17342798706991 14.442344103545565 109.9303493470968 H 0.0 **** 0.06
9320 H 79.61679054327746 16.133806372218842 109.92703200904828 H 0.0 **** 0.06
9321 C 88.00946964976208 87.76137492099772 80.46958995572626 C 0.0 **** -0.24
9322 H 87.20755205486 88.05305904730005 81.14665409159178 H 0.0 **** 0.06
9323 H 88.95612194992921 87.7561665848504 81.00984885937015 H 0.0 **** 0.06
9324 H 88.0657732997816 88.47152751290062 79.64458414606051 H 0.0 **** 0.06
9325 H 87.8089191556102 86.76426593534853 80.07800147030039 H 0.0 **** 0.06
9326 C 0.7947159946264577 109.17737449542511 37.6863484970662 C 0.0 **** -0.24
9327 H 1.2068753558132101 108.17220021685091 37.77690643527828 H 0.0 **** 0.06
9328 H 0.03813661195756879 109.33004808365541 38.45677686476315 H 0.0 **** 0.06
9329 H 0.34009602867645583 109.29616868310575 36.702694069809056 H 0.0 **** 0.06
9330 H 1.5918732266279818 109.90995870349394 37.808573932915074 H 0.0 **** 0.06
9331 C 65.83957077012428 5.84017748727905 58.86255798347395 C 0.0 **** -0.24
9332 H 65.01525299981944 5.184844809276171 58.58304299829979 H 0.0 **** 0.06
9333 H 66.52112040557085 5.94576808758751 58.017340129984746 H 0.0 **** 0.06
9334 H 66.37430723165386 5.411352197468972 59.70959288939463 H 0.0 **** 0.06
9335 H 65.44792965224158 6.819563955771855 59.137388422800484 H 0.0 **** 0.06
9336 C 98.909625894079 63.514942385695264 35.650396682898645 C 0.0 **** -0.24
9337 H 99.59171027560993 62.80193443764455 36.111782487933 H 0.0 **** 0.06
9338 H 98.8418615636462 64.40729170257688 36.27280578591859 H 0.0 **** 0.06
9339 H 97.92249274728553 63.06364924338169 35.55293381203239 H 0.0 **** 0.06
9340 H 99.28285092627263 63.78919565255177 34.663334045332135 H 0.0 **** 0.06
9341 C 81.56889393741426 19.348987829478006 30.387404806958074 C 0.0 **** -0.24
9342 H 80.52311265528209 19.646289369182284 30.30979880038703 H 0.0 **** 0.06
9343 H 81.95813001729147 19.63977651160073 31.363754475526548 H 0.0 **** 0.06
9344 H 82.14573625660995 19.843551393917807 29.6048370445221 H 0.0 **** 0.06
9345 H 81.65000072605477 18.26875094237903 30.270138880770844 H 0.0 **** 0.06
9346 C 29.432085318696465 43.422014589574985 19.42420797827188 C 0.0 **** -0.24
9347 H 28.586381949661245 43.56619662031318 20.097007186818615 H 0.0 **** 0.06
9348 H 29.08439664127198 42.959102293097544 18.499896201926788 H 0.0 **** 0.06
9349 H 30.168464933312492 42.77629276899097 19.90038091045281 H 0.0 **** 0.06
9350 H 29.885575647901618 44.38754471424306 19.198889267124912 H 0.0 **** 0.06
9351 C 11.63971928861714 7.819785067684876 91.82672197331479 C 0.0 **** -0.24
9352 H 11.859959395452702 7.3018275909026045 90.89287681493687 H 0.0 **** 0.06
9353 H 11.814553081752027 8.888699937275163 91.69903637330304 H 0.0 **** 0.06
9354 H 12.287805227133422 7.4370872650101205 92.6154674491286 H 0.0 **** 0.06
9355 H 10.59764716689028 7.651245830802793 92.09864773079278 H 0.0 **** 0.06
9356 C 64.83934338081724 96.45317992101042 58.89947887403034 C 0.0 **** -0.24
9357 H 64.56537353480974 95.49882949385201 58.4491143464631 H 0.0 **** 0.06
9358 H 64.2287893355034 97.24739427757049 58.46652521863083 H 0.0 **** 0.06
9359 H 65.89206480063706 96.65752821541261 58.70667658489962 H 0.0 **** 0.06
9360 H 64.66817422005931 96.40937112479517 59.97568395350617 H 0.0 **** 0.06
9361 C 28.789534917976653 49.75459267433484 51.716907164785226 C 0.0 **** -0.24
9362 H 28.560825959396453 50.81944439922794 51.67417073294038 H 0.0 **** 0.06
9363 H 27.92316060944657 49.21236683791364 52.09625280271496 H 0.0 **** 0.06
9364 H 29.63993845511436 49.591655866989655 52.38036998475738 H 0.0 **** 0.06
9365 H 29.034670741128053 49.39527259992576 50.7176449966035 H 0.0 **** 0.06
9366 C 30.91412815741026 64.90421913523528 68.41206440270832 C 0.0 **** -0.24
9367 H 31.574473911261435 65.727309841884 68.14073156275805 H 0.0 **** 0.06
9368 H 29.89263582019396 65.27410209934004 68.51037763161133 H 0.0 **** 0.06
9369 H 31.238650318196022 64.47637179457814 69.36113155856793 H 0.0 **** 0.06
9370 H 30.949833668468727 64.1382693813211 67.63670800786522 H 0.0 **** 0.06
9371 C 52.346358022987914 75.9539093862993 47.53163449325217 C 0.0 **** -0.24
9372 H 51.29227485518069 75.72874762682756 47.692678666300964 H 0.0 **** 0.06
9373 H 52.873647037603405 75.04266183392537 47.24810914659909 H 0.0 **** 0.06
9374 H 52.77704640174218 76.35192741623649 48.45114231369692 H 0.0 **** 0.06
9375 H 52.44212042949661 76.69230140951646 46.73554707728866 H 0.0 **** 0.06
9376 C 103.00806208860723 89.01067464530786 92.06707111866513 C 0.0 **** -0.24
9377 H 103.15531217402153 87.93889831753461 92.20002713812823 H 0.0 **** 0.06
9378 H 103.36866420317787 89.53865380626004 92.94996042139314 H 0.0 **** 0.06
9379 H 101.94774205160863 89.21694305996627 91.9277045344898 H 0.0 **** 0.06
9380 H 103.56226724167283 89.34699840901249 91.19132040494122 H 0.0 **** 0.06
9381 C 68.55632818106469 50.43479146477189 21.462396894141875 C 0.0 **** -0.24
9382 H 69.1560774143997 50.8865334254241 20.672147277256364 H 0.0 **** 0.06
9383 H 67.96396545943358 51.20625039533898 21.95522441024148 H 0.0 **** 0.06
9384 H 69.21332957092045 49.959609319161565 22.19074123742294 H 0.0 **** 0.06
9385 H 67.89113816736065 49.687133598020566 21.030998795280485 H 0.0 **** 0.06
9386 C 9.008927768157662 74.99218777717795 71.41153826566892 C 0.0 **** -0.24
9387 H 8.579399774536597 74.52131068906306 72.29653992474891 H 0.0 **** 0.06
9388 H 8.258669634206939 75.03078040267644 70.62038160839006 H 0.0 **** 0.06
9389 H 9.867207518972151 74.41212653306002 71.0717232575609 H 0.0 **** 0.06
9390 H 9.329296556486014 76.0044796292919 71.65834678595502 H 0.0 **** 0.06
9391 C 85.76856890034091 24.60484480301716 67.41543969543571 C 0.0 **** -0.24
9392 H 85.64692848988088 24.363597336020376 66.35907626120775 H 0.0 **** 0.06
9393 H 86.3505037795218 25.521791513051426 67.51387228783184 H 0.0 **** 0.06
9394 H 86.28892145698603 23.78856338752047 67.91739518197676 H 0.0 **** 0.06
9395 H 84.78826590072251 24.74551620551398 67.87048030958084 H 0.0 **** 0.06
9396 C 42.60894650688476 20.810169933882236 3.1954520924409735 C 0.0 **** -0.24
9397 H 43.677639457182366 20.841298100742137 2.9830190193930264 H 0.0 **** 0.06
9398 H 42.297573158820185 19.77485721113308 3.3373627785108795 H 0.0 **** 0.06
9399 H 42.059387946585 21.243096566708573 2.3589831050709194 H 0.0 **** 0.06
9400 H 42.401882991201944 21.380608343141432 4.100757619479921 H 0.0 **** 0.06
9401 C 87.7690044281417 86.19533176800158 75.81112072989382 C 0.0 **** -0.24
9402 H 87.4920403891015 87.22437594149588 76.04010194774517 H 0.0 **** 0.06
9403 H 86.92663970614814 85.68868700450915 75.34010677092704 H 0.0 **** 0.06
9404 H 88.03449627460571 85.67825985255087 76.73338485770597 H 0.0 **** 0.06
9405 H 88.62278251824759 86.19037146545463 75.13309433601663 H 0.0 **** 0.06
9406 C 92.04927560941348 85.92770945091257 13.65677123494092 C 0.0 **** -0.24
9407 H 90.97930500895899 85.7824813952536 13.80242857725213 H 0.0 **** 0.06
9408 H 92.59963001921602 85.20368793973077 14.259365945028108 H 0.0 **** 0.06
9409 H 92.32354898047186 86.93774887700872 13.962399940635777 H 0.0 **** 0.06
9410 H 92.29529540879204 85.78709655500236 12.604119499138761 H 0.0 **** 0.06
9411 C 14.685878022717077 105.77558500805296 20.347404426998764 C 0.0 **** -0.24
9412 H 14.34146147837916 106.74832786264052 19.998783034499468 H 0.0 **** 0.06
9413 H 15.370730956867874 105.3487826591251 19.614170055373563 H 0.0 **** 0.06
9414 H 13.830488816869376 105.11160159221961 20.474497914635748 H 0.0 **** 0.06
9415 H 15.201065510892022 105.8920761503436 21.30092687595041 H 0.0 **** 0.06
9416 C 81.2323672867874 53.23196091803561 31.224220615406352 C 0.0 **** -0.24
9417 H 80.73102376388385 53.75713001596084 30.410414400426404 H 0.0 **** 0.06
9418 H 81.1983928900936 53.844670903718345 32.12571973889504 H 0.0 **** 0.06
9419 H 82.27008647646755 53.04598345357511 30.950511723971545 H 0.0 **** 0.06
9420 H 80.72869234551175 52.28334793802689 31.408986235008797 H 0.0 **** 0.06
9421 C 72.07454826580963 42.85086005236319 87.41509519797145 C 0.0 **** -0.24
9422 H 72.2832215513755 43.84959882082714 87.79827884562675 H 0.0 **** 0.06
9423 H 72.96049231568807 42.46410010755625 86.9093478324971 H 0.0 **** 0.06
9424 H 71.24496935648722 42.898010695029726 86.71012072983984 H 0.0 **** 0.06
9425 H 71.81171980466286 42.191644844704925 88.24296351548824 H 0.0 **** 0.06
9426 C 90.72479683944005 70.34762473306444 14.616628198494766 C 0.0 **** -0.24
9427 H 90.72709182050994 71.03834045888902 13.773021094137903 H 0.0 **** 0.06
9428 H 91.61065201084386 69.7143418381927 14.56867218585063 H 0.0 **** 0.06
9429 H 89.83055139826675 69.72565085206162 14.572753470187706 H 0.0 **** 0.06
9430 H 90.73074067099648 70.9121854041112 15.547945650611268 H 0.0 **** 0.06
9431 C 11.237061043365852 96.63934335668048 62.68972694332285 C 0.0 **** -0.24
9432 H 10.547849211170067 97.37681952239345 62.27964367677396 H 0.0 **** 0.06
9433 H 12.259560374408277 97.0065319315612 62.60001031154539 H 0.0 **** 0.06
9434 H 11.137347364273804 95.70315198761233 62.1393667340611 H 0.0 **** 0.06
9435 H 11.003146153253283 96.46870384996996 63.74097877876744 H 0.0 **** 0.06
9436 C 49.300925333220334 66.84486299052611 29.753191563284247 C 0.0 **** -0.24
9437 H 50.11553066655824 66.50969520878465 30.396179253354177 H 0.0 **** 0.06
9438 H 48.5788518152209 67.4071791600773 30.346075031069205 H 0.0 **** 0.06
9439 H 48.81054059691917 65.97851379603054 29.309146205635187 H 0.0 **** 0.06
9440 H 49.69992357223015 67.48207935594343 28.96432397766708 H 0.0 **** 0.06
9441 C 105.3600389273139 32.978062585223476 13.096597741026542 C 0.0 **** -0.24
9442 H 105.13747786459274 33.59062191101943 12.222379182821356 H 0.0 **** 0.06
9443 H 104.49710389315769 32.353128253780305 13.330282774087905 H 0.0 **** 0.06
9444 H 105.58215129451605 33.623545902271935 13.945041990895831 H 0.0 **** 0.06
9445 H 106.22118668791393 32.34437740195959 12.886526407964311 H 0.0 **** 0.06
9446 C 11.038233679871041 37.01675348120517 105.84707579113558 C 0.0 **** -0.24
9447 H 11.706440244706016 37.63685306193935 106.44428167048534 H 0.0 **** 0.06
9448 H 11.625725178575976 36.42631646779245 105.14253098934907 H 0.0 **** 0.06
9449 H 10.345179623656236 37.65422119797023 105.29846996752397 H 0.0 **** 0.06
9450 H 10.479116450723609 36.349096415183624 106.50248661407454 H 0.0 **** 0.06
9451 C 26.787525585077624 43.567861443449644 73.01044760740854 C 0.0 **** -0.24
9452 H 26.60732970087855 44.54620654541162 72.56613394065153 H 0.0 **** 0.06
9453 H 26.2622725243236 43.50024761601229 73.9630813118755 H 0.0 **** 0.06
9454 H 27.857326537242123 43.434455334750446 73.17353398346722 H 0.0 **** 0.06
9455 H 26.422601161472954 42.79113212260663 72.33789340373028 H 0.0 **** 0.06
9456 C 1.4494588880715185 40.05619532323528 34.13155367355273 C 0.0 **** -0.24
9457 H 1.4886794884756682 40.835821002086654 34.892354527289854 H 0.0 **** 0.06
9458 H 0.6779221998006904 40.300619311490955 33.40054169323048 H 0.0 **** 0.06
9459 H 1.2159247753571378 39.10124792046752 34.60199139231838 H 0.0 **** 0.06
9460 H 2.4159946417791787 39.98832251694252 33.631463328462246 H 0.0 **** 0.06
9461 C 19.076031233410703 92.3922011676379 15.482299599589783 C 0.0 **** -0.24
9462 H 18.02669072168976 92.38279497891824 15.186745155326303 H 0.0 **** 0.06
9463 H 19.391908063210025 93.41919460066794 15.66600510982293 H 0.0 **** 0.06
9464 H 19.681255427302006 91.9622772305753 14.68353334275011 H 0.0 **** 0.06
9465 H 19.202656294153883 91.80367396189999 16.391287632116192 H 0.0 **** 0.06
9466 C 30.014546895508545 35.80545744152589 10.240268282966497 C 0.0 **** -0.24
9467 H 30.5228933983841 35.42718224136014 9.353495999535198 H 0.0 **** 0.06
9468 H 29.084283856954016 36.29047764617231 9.945781564138485 H 0.0 **** 0.06
9469 H 30.65630809635877 36.526456132790685 10.746436068024707 H 0.0 **** 0.06
9470 H 29.796524450158472 34.97671285569416 10.914536081940525 H 0.0 **** 0.06
9471 C 6.025653120236768 106.09075978527838 93.66188901072647 C 0.0 **** -0.24
9472 H 5.395101309229915 105.96313067810553 92.78103788273336 H 0.0 **** 0.06
9473 H 6.044194741493811 107.14267630191955 93.94616390635412 H 0.0 **** 0.06
9474 H 7.038447440943855 105.75817941453434 93.43330559145838 H 0.0 **** 0.06
9475 H 5.624905054519672 105.49777603056557 94.48353163382515 H 0.0 **** 0.06
9476 C 102.54596598933352 96.7163571490843 8.514614744666318 C 0.0 **** -0.24
9477 H 101.87581602139068 97.57187346659472 8.437263741618295 H 0.0 **** 0.06
9478 H 101.96911684663667 95.79545685390823 8.432852477738862 H 0.0 **** 0.06
9479 H 103.05731472392824 96.74105671032419 9.47637341205126 H 0.0 **** 0.06
9480 H 103.2820237344979 96.75712036314727 7.710617328477156 H 0.0 **** 0.06
9481 C 40.02882415224957 25.182172250359486 96.19807508815094 C 0.0 **** -0.24
9482 H 39.71568901230697 26.223499047261157 96.1224359593028 H 0.0 **** 0.06
9483 H 41.03715965709145 25.076788846579547 95.79518260277672 H 0.0 **** 0.06
9484 H 39.34255715269816 24.554634680886096 95.6301423904059 H 0.0 **** 0.06
9485 H 40.02188963667024 24.875954842959942 97.24407470189502 H 0.0 **** 0.06
9486 C 11.724675409240842 54.893670442645906 63.38648902534044 C 0.0 **** -0.24
9487 H 12.044736883758027 55.65726977292999 64.09674053821718 H 0.0 **** 0.06
9488 H 12.601186381920218 54.39125525353353 62.97511937992127 H 0.0 **** 0.06
9489 H 11.162787951029767 55.36331124943603 62.57928869554689 H 0.0 **** 0.06
9490 H 11.092810213386844 54.16659379466478 63.89479130521383 H 0.0 **** 0.06
9491 C 101.08599786041387 80.49011283659891 13.790818151368057 C 0.0 **** -0.24
9492 H 100.50887426825159 80.74023625430408 14.681519041028423 H 0.0 **** 0.06
9493 H 101.42729064461977 81.40819377710514 13.31146330330273 H 0.0 **** 0.06
9494 H 100.4599366770197 79.92843184621694 13.09820339874102 H 0.0 **** 0.06
9495 H 101.94768944041158 79.88572039267433 14.074988540536538 H 0.0 **** 0.06
9496 C 91.24874780357737 79.17904609344171 23.62390022538716 C 0.0 **** -0.24
9497 H 91.0778876027145 79.95471051558496 24.36954814098567 H 0.0 **** 0.06
9498 H 90.52614558352019 78.37513521163996 23.763827742122942 H 0.0 **** 0.06
9499 H 92.25860504278819 78.78387143415745 23.735460759661606 H 0.0 **** 0.06
9500 H 91.13325959310288 79.60285270163462 22.626592453570282 H 0.0 **** 0.06
9501 C 104.91202631136238 22.05664067415603 36.432737043635306 C 0.0 **** -0.24
9502 H 105.27514976081497 22.934118085581304 36.96843768969277 H 0.0 **** 0.06
9503 H 103.87842306526127 22.22027193173284 36.12636703809216 H 0.0 **** 0.06
9504 H 104.96437742403506 21.185019101510647 37.084722130450956 H 0.0 **** 0.06
9505 H 105.52973633921113 21.889178176964208 35.55056925475347 H 0.0 **** 0.06
9506 C 39.726940421857506 79.09006469666696 20.540404910321314 C 0.0 **** -0.24
9507 H 39.93456074026895 80.15481399736436 20.6494743985715 H 0.0 **** 0.06
9508 H 40.666881834951624 78.5445127791227 20.4495605005865 H 0.0 **** 0.06
9509 H 39.123751387731176 78.92699000150947 19.647932526142142 H 0.0 **** 0.06
9510 H 39.183988815086934 78.73480594511364 21.41645067522765 H 0.0 **** 0.06
9511 C 66.17945816696144 110.26785757251238 35.5124776224807 C 0.0 **** -0.24
9512 H 67.05527849376463 110.7013039612041 35.029688467210775 H 0.0 **** 0.06
9513 H 66.48642924262597 109.42568434772363 36.13294311578733 H 0.0 **** 0.06
9514 H 65.47879782994738 109.92378682966441 34.752449504241014 H 0.0 **** 0.06
9515 H 65.69859698068973 111.02192191645068 36.135714241770216 H 0.0 **** 0.06
9516 C 97.70525690714751 94.54552537340768 77.12492633716184 C 0.0 **** -0.24
9517 H 97.8251178248457 93.78224215316934 76.3548045373222 H 0.0 **** 0.06
9518 H 96.85368279460118 94.29177612183904 77.75699064788256 H 0.0 **** 0.06
9519 H 97.53438830705485 95.51308789557996 76.65432777673723 H 0.0 **** 0.06
9520 H 98.60916048842003 94.59149669424409 77.73369758894427 H 0.0 **** 0.06
9521 C 87.15478341298626 29.309055052916563 87.16686308005362 C 0.0 **** -0.24
9522 H 87.20558912497214 30.07103040218945 87.94520027378067 H 0.0 **** 0.06
9523 H 86.19877221733873 29.38456197344911 86.64829995490291 H 0.0 **** 0.06
9524 H 87.24663396722545 28.32249799852707 87.61968641075745 H 0.0 **** 0.06
9525 H 87.96684412552099 29.461271198996286 86.45660187744807 H 0.0 **** 0.06
9526 C 98.87878633199051 91.45426379631462 44.41339783959339 C 0.0 **** -0.24
9527 H 98.33470851365757 91.400670355702 45.357106236541654 H 0.0 **** 0.06
9528 H 98.52508464211076 92.31122721188834 43.839452498873214 H 0.0 **** 0.06
9529 H 98.70982143934498 90.53962419059692 43.84483855347432 H 0.0 **** 0.06
9530 H 99.94429396453162 91.56632545042405 44.615635565854916 H 0.0 **** 0.06
9531 C 103.26693571201503 66.85010477980495 32.19171825611147 C 0.0 **** -0.24
9532 H 103.56730383451574 67.85646163731744 31.899592824264403 H 0.0 **** 0.06
9533 H 103.80438825043447 66.55868542887089 33.094214755074916 H 0.0 **** 0.06
9534 H 103.50049966212129 66.15318702039147 31.38646367502264 H 0.0 **** 0.06
9535 H 102.19387807961309 66.83377056304502 32.386001497585426 H 0.0 **** 0.06
9536 C 22.32639956038907 88.35498660435752 107.25041080322262 C 0.0 **** -0.24
9537 H 22.481853413588862 87.43184908577007 107.80748847335815 H 0.0 **** 0.06
9538 H 21.256952627528662 88.55091366207671 107.16269916379123 H 0.0 **** 0.06
9539 H 22.761018295394273 88.25761056959828 106.25555108757882 H 0.0 **** 0.06
9540 H 22.804268156714635 89.18167636079858 107.77742420077674 H 0.0 **** 0.06
9541 C 37.23910991283782 38.30161194593495 58.32683801907828 C 0.0 **** -0.24
9542 H 37.13078132262831 38.23796515875051 57.243213313762794 H 0.0 **** 0.06
9543 H 38.144786359634395 38.85651379106986 58.56937964997172 H 0.0 **** 0.06
9544 H 37.30542444106244 37.29688254447194 58.743983785922524 H 0.0 **** 0.06
9545 H 36.373798578470655 38.81420792736941 58.748427997123 H 0.0 **** 0.06
9546 C 27.142504169321256 57.59485969197445 63.960953741300564 C 0.0 **** -0.24
9547 H 26.09581392124423 57.88077420589696 64.062352833544 H 0.0 **** 0.06
9548 H 27.6203461613934 58.225934783512805 63.21204746404691 H 0.0 **** 0.06
9549 H 27.20591717201009 56.55136684973767 63.65249002232273 H 0.0 **** 0.06
9550 H 27.647475134174698 57.720815836552596 64.91926675260737 H 0.0 **** 0.06
9551 C 18.64729016187684 105.65368229597382 36.19312080448106 C 0.0 **** -0.24
9552 H 18.14571132346424 105.92455204503202 35.263535040212126 H 0.0 **** 0.06
9553 H 18.169368494108966 106.16833948968224 37.026804949669156 H 0.0 **** 0.06
9554 H 19.69575947073892 105.94465302382358 36.13918136425305 H 0.0 **** 0.06
9555 H 18.57633200481331 104.5761930535563 36.34271785943737 H 0.0 **** 0.06
9556 C 108.18801483458576 85.95482113929089 54.842605761982895 C 0.0 **** -0.24
9557 H 108.93934001325201 85.8673897142445 54.05797617225343 H 0.0 **** 0.06
9558 H 107.49586899166017 85.1139240407868 54.77776965636042 H 0.0 **** 0.06
9559 H 107.6395309704903 86.88809419354479 54.716684265400005 H 0.0 **** 0.06
9560 H 108.67700195675329 85.94811155714066 55.81632436557905 H 0.0 **** 0.06
9561 C 87.53632725209292 80.4218998424825 49.53370192417456 C 0.0 **** -0.24
9562 H 86.7341943244954 80.88304534443537 48.95639693272621 H 0.0 **** 0.06
9563 H 87.60111037747257 79.3626896240161 49.28387343473751 H 0.0 **** 0.06
9564 H 87.32721514239921 80.53305129327336 50.5983196720852 H 0.0 **** 0.06
9565 H 88.48155566474205 80.91091192229379 49.295945996821864 H 0.0 **** 0.06
9566 C 80.89777783284933 73.19956404527917 110.16791991759735 C 0.0 **** -0.24
9567 H 79.8816885761423 72.82588182019296 110.03591353096223 H 0.0 **** 0.06
9568 H 81.1729483596445 73.13694404424146 111.22115367794765 H 0.0 **** 0.06
9569 H 80.94793770896814 74.23784785718266 109.84040795434885 H 0.0 **** 0.06
9570 H 81.58582716450906 72.59659645503751 109.57503323840203 H 0.0 **** 0.06
9571 C 0.1438907121083819 110.61344692799622 4.458175931625352 C 0.0 **** -0.24
9572 H 0.7638327111959642 111.15538519292971 5.1718573610578265 H 0.0 **** 0.06
9573 H -0.7755165128960444 110.29081098800174 4.946901624899143 H 0.0 **** 0.06
9574 H 0.6872964219943292 109.74200449960432 4.093951171172662 H 0.0 **** 0.06
9575 H -0.09976872710403395 111.26624567842202 3.6192955330303427 H 0.0 **** 0.06
9576 C 28.429656513832896 32.04637114553506 82.32118444582366 C 0.0 **** -0.24
9577 H 28.055529402547194 32.151770708727724 83.34022875665352 H 0.0 **** 0.06
9578 H 29.42587220693784 31.604994004587894 82.34478287235555 H 0.0 **** 0.06
9579 H 28.476909421076442 33.02675557760895 81.8480038550191 H 0.0 **** 0.06
9580 H 27.7591364847311 31.400641109429074 81.75392699587297 H 0.0 **** 0.06
9581 C 93.28008117722717 63.59043095825223 80.26010744767387 C 0.0 **** -0.24
9582 H 92.90097124609991 63.291822666494454 79.28270571667821 H 0.0 **** 0.06
9583 H 92.47574187980965 64.04945594209767 80.83601266409579 H 0.0 **** 0.06
9584 H 94.09039979581871 64.30757317896337 80.13123104096104 H 0.0 **** 0.06
9585 H 93.6516847003252 62.713887337154006 80.78885632190367 H 0.0 **** 0.06
9586 C 77.86769337966953 25.7916264418102 45.12936387722294 C 0.0 **** -0.24
9587 H 77.17415302451991 26.20373300730469 45.86299211915406 H 0.0 **** 0.06
9588 H 78.8918428319158 25.97414886219289 45.45660984340003 H 0.0 **** 0.06
9589 H 77.70322325128382 26.27052744975871 44.164799874077914 H 0.0 **** 0.06
9590 H 77.7014442890189 24.7182024102178 45.03604986245324 H 0.0 **** 0.06
9591 C 91.0436176707997 8.304512192142738 27.805632807308797 C 0.0 **** -0.24
9592 H 91.1762857604287 7.309881231185727 27.380610705490398 H 0.0 **** 0.06
9593 H 89.98002044450868 8.541724878618481 27.846086861003272 H 0.0 **** 0.06
9594 H 91.55623587410662 9.037106174269354 27.183401385788386 H 0.0 **** 0.06
9595 H 91.45936445007462 8.3275607925666 28.812954387338124 H 0.0 **** 0.06
9596 C 16.47296689140768 90.30674515646211 66.20212791083219 C 0.0 **** -0.24
9597 H 16.17853215802839 91.3198314444586 66.47599968208473 H 0.0 **** 0.06
9598 H 15.725885618033118 89.60039214050465 66.56360869398077 H 0.0 **** 0.06
9599 H 17.440086247172246 90.07662404800573 66.65141727440562 H 0.0 **** 0.06
9600 H 16.5499657791689 90.2316235952685 65.11740245356705 H 0.0 **** 0.06
9601 C 77.21473664780729 103.11611972338406 46.69016947074542 C 0.0 **** -0.24
9602 H 77.59350590651547 103.12556172520715 45.66775363968793 H 0.0 **** 0.06
9603 H 76.31334650231338 102.50529255562935 46.737702127367896 H 0.0 **** 0.06
9604 H 76.98127701298006 104.13474031812825 47.000385661836646 H 0.0 **** 0.06
9605 H 77.97301174281938 102.6995350742242 47.353964287945445 H 0.0 **** 0.06
9606 C 83.36913409916818 41.89931161915891 16.995054807735645 C 0.0 **** -0.24
9607 H 82.685918933838 41.762207090148195 17.833341028034408 H 0.0 **** 0.06
9608 H 83.80331635242075 42.89826158433418 17.03942984271831 H 0.0 **** 0.06
9609 H 82.82392734944332 41.7805487903417 16.058237627009877 H 0.0 **** 0.06
9610 H 84.16337434468122 41.154822944604234 17.049058785441968 H 0.0 **** 0.06
9611 C 86.0939820379761 31.068394748904467 90.76591525431076 C 0.0 **** -0.24
9612 H 86.09229396658401 31.383593846074795 89.72284045974803 H 0.0 **** 0.06
9613 H 86.81589789424862 30.263022030308164 90.90202066276927 H 0.0 **** 0.06
9614 H 85.09959187543865 30.71573979442862 91.04102454266564 H 0.0 **** 0.06
9615 H 86.36716579550426 31.91269956466757 91.39946749828823 H 0.0 **** 0.06
9616 C 98.011216475899 71.96339138671601 100.49742986562973 C 0.0 **** -0.24
9617 H 97.53084133893313 72.94049911765725 100.53511981880155 H 0.0 **** 0.06
9618 H 97.75224675079895 71.39657303663111 101.39152829968867 H 0.0 **** 0.06
9619 H 99.09188705175393 72.09142855734012 100.44865594729461 H 0.0 **** 0.06
9620 H 97.66886000406049 71.42500783550292 99.61344875185526 H 0.0 **** 0.06
9621 C 39.7014916631453 3.3578897209688137 101.30914844225367 C 0.0 **** -0.24
9622 H 40.480073638862066 3.8824739589913406 101.86312577344734 H 0.0 **** 0.06
9623 H 38.7810603949281 3.9420463502369785 101.33548778073396 H 0.0 **** 0.06
9624 H 39.52523912136976 2.382900971043682 101.76445099864475 H 0.0 **** 0.06
9625 H 40.01803279539263 3.2248827002799203 100.27494672235741 H 0.0 **** 0.06
9626 C 86.72888386173273 87.8795024579411 57.99963601371377 C 0.0 **** -0.24
9627 H 86.75214160563769 87.52450508108069 56.969028734367896 H 0.0 **** 0.06
9628 H 85.77655061043384 87.6070522182664 58.45547445385694 H 0.0 **** 0.06
9629 H 86.84116345353874 88.96402278684269 58.012535147792164 H 0.0 **** 0.06
9630 H 87.54482663215845 87.42291637518707 58.55926168780093 H 0.0 **** 0.06
9631 C 71.10767671888081 12.55802619876322 2.2497701024860817 C 0.0 **** -0.24
9632 H 71.92135609869672 12.399953596761197 1.5426603159374785 H 0.0 **** 0.06
9633 H 70.67350109606531 13.545383743430762 2.09021434685123 H 0.0 **** 0.06
9634 H 71.49298077823121 12.491835010458082 3.268206653677792 H 0.0 **** 0.06
9635 H 70.34265122890449 11.795590990065588 2.1009179025356133 H 0.0 **** 0.06
9636 C 89.48842675960248 88.282010921423 5.968359741324321 C 0.0 **** -0.24
9637 H 88.73041384632529 88.1099184232219 5.203741518334539 H 0.0 **** 0.06
9638 H 90.34677572557518 87.63762411586671 5.779775392957276 H 0.0 **** 0.06
9639 H 89.072376538453 88.05657624526765 6.949901267117411 H 0.0 **** 0.06
9640 H 89.80247615465339 89.32595407335103 5.937993075269333 H 0.0 **** 0.06
9641 C 97.5795434477294 65.67218455045054 57.74639256721736 C 0.0 **** -0.24
9642 H 97.27645775713609 65.37104421471548 56.74357057030392 H 0.0 **** 0.06
9643 H 97.04010249658648 65.07616492941747 58.48227668983976 H 0.0 **** 0.06
9644 H 97.35025822898038 66.72810201470392 57.893644222675185 H 0.0 **** 0.06
9645 H 98.65138525932946 65.51413388301916 57.86420803567602 H 0.0 **** 0.06
9646 C 65.10238619558731 97.83670667133055 15.351167222458137 C 0.0 **** -0.24
9647 H 64.71166668323966 97.08186343913235 16.03318945004545 H 0.0 **** 0.06
9648 H 66.16395797918273 97.98688886431614 15.544671694165238 H 0.0 **** 0.06
9649 H 64.56829139389171 98.77504118101751 15.502757178599591 H 0.0 **** 0.06
9650 H 64.9645450581705 97.50304499431726 14.322699384191175 H 0.0 **** 0.06
9651 C 8.559031945822824 67.1580919141486 18.802691438030678 C 0.0 **** -0.24
9652 H 8.117328925778793 68.05149429997982 18.362087342488522 H 0.0 **** 0.06
9653 H 9.616518464363935 67.10930200414876 18.541773379157803 H 0.0 **** 0.06
9654 H 8.048168700084403 66.2743282803282 18.419909518017562 H 0.0 **** 0.06
9655 H 8.453211042149121 67.19752741175802 19.88732420020216 H 0.0 **** 0.06
9656 C 94.17860359831809 73.43630596708962 23.520136221605583 C 0.0 **** -0.24
9657 H 93.56245944466633 74.29693033549191 23.781619492529558 H 0.0 **** 0.06
9658 H 93.91831807730452 73.09403037911699 22.51859927668758 H 0.0 **** 0.06
9659 H 94.00184990892603 72.63379453898003 24.236506203242385 H 0.0 **** 0.06
9660 H 95.23022847375424 73.7207056666825 23.54656135278995 H 0.0 **** 0.06
9661 C 55.90342024683619 41.04879852561555 104.83378917603366 C 0.0 **** -0.24
9662 H 56.27635946693105 40.02612146132555 104.76558041423769 H 0.0 **** 0.06
9663 H 56.7463329878867 41.740108058730385 104.86711650095953 H 0.0 **** 0.06
9664 H 55.30729238484569 41.15808186112707 105.73985215588309 H 0.0 **** 0.06
9665 H 55.286574998755604 41.268782912957505 103.9637494805207 H 0.0 **** 0.06
9666 C 51.36302753942663 0.008304071440358385 108.02305536660734 C 0.0 **** -0.24
9667 H 51.2532485089048 1.0280577341018722 107.65339410304537 H 0.0 **** 0.06
9668 H 50.85483713681227 -0.6789862571506848 107.34652309018924 H 0.0 **** 0.06
9669 H 50.923523390786144 -0.06732940321515724 109.01744766732858 H 0.0 **** 0.06
9670 H 52.421105510421015 -0.24730627836198948 108.07308240362389 H 0.0 **** 0.06
9671 C 77.77857233890182 84.86833412867108 108.83474394684376 C 0.0 **** -0.24
9672 H 76.76443642559383 84.48822940569056 108.95145320875875 H 0.0 **** 0.06
9673 H 78.12620433652896 85.272907204711 109.78578078150922 H 0.0 **** 0.06
9674 H 77.78781244125969 85.65306567998297 108.07867227675881 H 0.0 **** 0.06
9675 H 78.43697391572599 84.05559507491265 108.52349462029287 H 0.0 **** 0.06
9676 C 19.4075250031903 85.12824229723643 3.1561018740350733 C 0.0 **** -0.24
9677 H 20.425180926204064 84.96042760332617 3.507743741336043 H 0.0 **** 0.06
9678 H 18.88958889217264 84.17270298455446 3.071910345479381 H 0.0 **** 0.06
9679 H 19.43629674335699 85.61383782992866 2.1802906233093324 H 0.0 **** 0.06
9680 H 18.87919731763006 85.76763827992795 3.863922524165929 H 0.0 **** 0.06
9681 C 107.88241198189779 2.6497565638248517 68.3011583938287 C 0.0 **** -0.24
9682 H 107.68387642920044 2.0063085554644147 69.15886681831941 H 0.0 **** 0.06
9683 H 108.04231215732763 2.034098083537131 67.41544624237648 H 0.0 **** 0.06
9684 H 108.77348185073947 3.2471467743337286 68.49356890181167 H 0.0 **** 0.06
9685 H 107.03060594162037 3.309344286154783 68.13702471123648 H 0.0 **** 0.06
9686 C 51.763446997613755 64.4152442662949 43.53158160885791 C 0.0 **** -0.24
9687 H 52.2973837808442 64.21858870968467 42.602136900209366 H 0.0 **** 0.06
9688 H 51.677188072555964 63.49030350014229 44.1026616580487 H 0.0 **** 0.06
9689 H 50.76834240071565 64.79765144325864 43.304760156200324 H 0.0 **** 0.06
9690 H 52.312010160380055 65.15359890126783 44.116878380483556 H 0.0 **** 0.06
9691 C 11.854961911873033 43.121260961713574 12.697647110017101 C 0.0 **** -0.24
9692 H 12.435433912087575 42.34722734421497 13.200885299109927 H 0.0 **** 0.06
9693 H 10.920928967136746 43.28338816719463 13.236192050461938 H 0.0 **** 0.06
9694 H 11.635976344644689 42.80445339911559 11.67739040498762 H 0.0 **** 0.06
9695 H 12.427966593185232 44.04816202078868 12.675411006151506 H 0.0 **** 0.06
9696 C 109.28196652647128 89.24039580845988 43.16170338050016 C 0.0 **** -0.24
9697 H 109.00408328872464 90.26330016638786 42.908563214291135 H 0.0 **** 0.06
9698 H 109.92883683675886 88.83634752783007 42.38270132457842 H 0.0 **** 0.06
9699 H 108.38204744308155 88.62945996565745 43.24083302268377 H 0.0 **** 0.06
9700 H 109.8107346515467 89.23355720646626 44.11433123998634 H 0.0 **** 0.06
9701 C 87.21978398790105 0.44447311259212174 50.503290158872915 C 0.0 **** -0.24
9702 H 86.66737143246121 1.2587841719910156 50.035460914952125 H 0.0 **** 0.06
9703 H 86.60795680541901 -0.009366421494727106 51.2825593903961 H 0.0 **** 0.06
9704 H 88.13884109280798 0.8338588364074022 50.942332570487395 H 0.0 **** 0.06
9705 H 87.4664873432958 -0.305472901519404 49.75151170752878 H 0.0 **** 0.06
9706 C 6.197785763423269 60.63264590289768 108.20812751908099 C 0.0 **** -0.24
9707 H 5.220393880772008 60.53296087609678 108.68181885178548 H 0.0 **** 0.06
9708 H 6.940510859449148 60.08990170652652 108.79363038934895 H 0.0 **** 0.06
9709 H 6.4715750821615075 61.68681364736963 108.15987618725356 H 0.0 **** 0.06
9710 H 6.157054312366569 60.22111519499475 107.2000775387712 H 0.0 **** 0.06
9711 C 29.364735324880144 64.54187147702402 108.18366293297862 C 0.0 **** -0.24
9712 H 28.738976232938683 65.29741765133923 107.70738885981177 H 0.0 **** 0.06
9713 H 28.834885765218928 64.11461528809411 109.03540762477297 H 0.0 **** 0.06
9714 H 30.291261515653048 65.00239277167603 108.52647883386726 H 0.0 **** 0.06
9715 H 29.594892048743077 63.755260259605585 107.46545402628888 H 0.0 **** 0.06
9716 C 72.55997590334815 106.00452308378371 65.706612468527 C 0.0 **** -0.24
9717 H 72.34970590682246 104.9773630377646 66.00669450265954 H 0.0 **** 0.06
9718 H 71.62167718015232 106.5402125617857 65.56299606026991 H 0.0 **** 0.06
9719 H 73.12461474169586 106.00203689693947 64.77463545636013 H 0.0 **** 0.06
9720 H 73.14501296659114 106.4962227893503 66.48470854323264 H 0.0 **** 0.06
9721 C 94.88799788909051 24.0066651484361 38.063782050170346 C 0.0 **** -0.24
9722 H 93.88364205163845 23.84638240330409 37.67155355518918 H 0.0 **** 0.06
9723 H 95.32408799027183 23.048582010525053 38.34788688034723 H 0.0 **** 0.06
9724 H 94.83747185732881 24.656885273699373 38.937598016711604 H 0.0 **** 0.06
9725 H 95.50598463781984 24.47465470669468 37.2975173828554 H 0.0 **** 0.06
9726 C 72.30527108747245 83.85678062665664 9.452128552017783 C 0.0 **** -0.24
9727 H 72.0224078890646 84.56273464665153 8.669945810652578 H 0.0 **** 0.06
9728 H 73.29304782502692 83.4506412030951 9.234336738331336 H 0.0 **** 0.06
9729 H 71.57848704841675 83.04607391780988 9.489113822551374 H 0.0 **** 0.06
9730 H 72.3269683256108 84.37063073978587 10.41306334157828 H 0.0 **** 0.06
9731 C 21.46849116289229 39.49943012273246 29.73301849693914 C 0.0 **** -0.24
9732 H 22.16406690403972 39.049532431985654 29.025426256422776 H 0.0 **** 0.06
9733 H 22.017579572402756 39.86394472447944 30.60144491166912 H 0.0 **** 0.06
9734 H 20.739356376011248 38.753167652069095 30.05085376884506 H 0.0 **** 0.06
9735 H 20.95073678209574 40.33097749196804 29.25414919707589 H 0.0 **** 0.06
9736 C 67.11096944198894 79.57180502915418 1.3015820881508668 C 0.0 **** -0.24
9737 H 66.99033051900611 79.11861154381901 0.3179366894253812 H 0.0 **** 0.06
9738 H 67.70636930522619 80.48065974106743 1.2129394309686656 H 0.0 **** 0.06
9739 H 67.61553265455566 78.86990566920073 1.966192267872655 H 0.0 **** 0.06
9740 H 66.13062327827038 79.81796929700332 1.7102347212585869 H 0.0 **** 0.06
9741 C 104.87195731472642 69.74847051016815 65.38582107470404 C 0.0 **** -0.24
9742 H 105.35229918287988 69.1483653788535 66.1587052293811 H 0.0 **** 0.06
9743 H 104.3754282824246 70.60341580258739 65.84529129587798 H 0.0 **** 0.06
9744 H 104.1369718259275 69.14078275835232 64.8588938855437 H 0.0 **** 0.06
9745 H 105.62439511173193 70.1006861316385 64.68040567095909 H 0.0 **** 0.06
9746 C 79.30995970636815 29.71789990905799 81.99070791930069 C 0.0 **** -0.24
9747 H 80.3835293296695 29.84814614667488 81.85234389629937 H 0.0 **** 0.06
9748 H 79.13208564678558 29.00468668246606 82.79582972777942 H 0.0 **** 0.06
9749 H 78.86872610015615 29.340951774858183 81.06788376790644 H 0.0 **** 0.06
9750 H 78.85800261174447 30.675985690729703 82.24615805568516 H 0.0 **** 0.06
9751 C 54.96932655736049 39.45920938352725 30.70680310230472 C 0.0 **** -0.24
9752 H 55.08420549546571 40.39396175044255 30.157455973369338 H 0.0 **** 0.06
9753 H 55.28623219949313 38.626863634630915 30.077893096760874 H 0.0 **** 0.06
9754 H 53.92414078217868 39.328142897983085 30.984834742308294 H 0.0 **** 0.06
9755 H 55.58387433841543 39.489068051878256 31.606530212349753 H 0.0 **** 0.06
9756 C 30.428830691422263 0.8519461461984292 67.22891807403605 C 0.0 **** -0.24
9757 H 29.931893028773004 -0.11446832531477469 67.14185235141082 H 0.0 **** 0.06
9758 H 31.422955616261476 0.7125179718042034 67.6533763118097 H 0.0 **** 0.06
9759 H 29.8437247428692 1.5033262735959596 67.87806470196591 H 0.0 **** 0.06
9760 H 30.514877733760528 1.3068571583478104 66.24183484549332 H 0.0 **** 0.06
9761 C 97.99249916613806 39.93642146119138 104.46510376052925 C 0.0 **** -0.24
9762 H 97.47070174394037 40.489325399619105 105.24528386328348 H 0.0 **** 0.06
9763 H 97.30138810787798 39.24225973282382 103.98701968081286 H 0.0 **** 0.06
9764 H 98.8203302285932 39.38062608093397 104.90535097850108 H 0.0 **** 0.06
9765 H 98.37835326440128 40.635143060059946 103.72114390148039 H 0.0 **** 0.06
9766 C 102.11843393857399 61.851398076749724 67.76065646587523 C 0.0 **** -0.24
9767 H 102.27836363674206 61.18449571150756 66.913652866907 H 0.0 **** 0.06
9768 H 102.84296018354488 61.62477066518681 68.54334744692017 H 0.0 **** 0.06
9769 H 101.10879179861533 61.712394168727194 68.14803236824724 H 0.0 **** 0.06
9770 H 102.24375182702073 62.88533905487456 67.43764110154734 H 0.0 **** 0.06
9771 C 4.6844802121043045 50.25065899011264 5.739057514644106 C 0.0 **** -0.24
9772 H 3.731590207824576 50.15815951920126 6.260583067607147 H 0.0 **** 0.06
9773 H 5.126635312570771 49.26170238353001 5.611651935385456 H 0.0 **** 0.06
9774 H 5.358215563865533 50.87721293033087 6.323422313421554 H 0.0 **** 0.06
9775 H 4.521497607900329 50.70428469555634 4.7621124272834905 H 0.0 **** 0.06
9776 C 82.43370811642168 38.97869231162074 43.70170401026823 C 0.0 **** -0.24
9777 H 82.14324265063004 39.31547524769486 44.69701525598552 H 0.0 **** 0.06
9778 H 83.39621529392119 39.416338078630105 43.436929572040356 H 0.0 **** 0.06
9779 H 81.68027949431033 39.290878849717124 42.97843623563057 H 0.0 **** 0.06
9780 H 82.51500265509168 37.891532246981754 43.695736802407936 H 0.0 **** 0.06
9781 C 15.049321388506296 16.104947872174506 90.37492080430158 C 0.0 **** -0.24
9782 H 15.366808992270776 16.907639150488762 91.0409544051603 H 0.0 **** 0.06
9783 H 14.994376358919446 15.170200365617774 90.93331543115076 H 0.0 **** 0.06
9784 H 15.769032072434236 16.002075635081184 89.56285971134281 H 0.0 **** 0.06
9785 H 14.067953630579826 16.34185098532322 89.96311664296661 H 0.0 **** 0.06
9786 C 44.43846692965758 94.1449284767387 42.097986826646775 C 0.0 **** -0.24
9787 H 45.11915542649794 94.31815858811603 42.93164557069298 H 0.0 **** 0.06
9788 H 44.78414159248092 94.70103922412844 41.2263204458896 H 0.0 **** 0.06
9789 H 43.43769682951816 94.47893882708735 42.36995488301562 H 0.0 **** 0.06
9790 H 44.41559285895613 93.07987649446122 41.86487203952939 H 0.0 **** 0.06
9791 C 81.33466848460034 17.15427120786518 26.807093406387196 C 0.0 **** -0.24
9792 H 81.5777509650552 16.162309026232208 26.42383574733472 H 0.0 **** 0.06
9793 H 82.11025421367802 17.85841988756789 26.507769604718078 H 0.0 **** 0.06
9794 H 81.2759281519709 17.117640471772688 27.89453402903203 H 0.0 **** 0.06
9795 H 80.37544770381186 17.475219505869887 26.401705892419244 H 0.0 **** 0.06
9796 C 52.696510481521784 44.822938492470016 3.7256257234371333 C 0.0 **** -0.24
9797 H 53.16588622903825 45.608912106642514 4.317686787551452 H 0.0 **** 0.06
9798 H 52.8353197535223 45.03499859084392 2.664458434176325 H 0.0 **** 0.06
9799 H 51.63038564452265 44.78500070739013 3.9510918874893264 H 0.0 **** 0.06
9800 H 53.153631594285656 43.863860511887175 3.9671936245310917 H 0.0 **** 0.06
9801 C 12.719791942176386 65.5033766960724 17.897646711930545 C 0.0 **** -0.24
9802 H 11.847248539856878 64.91118193021694 17.62169424454277 H 0.0 **** 0.06
9803 H 12.644817768897184 65.79546145013629 18.944854776173518 H 0.0 **** 0.06
9804 H 12.76565751077257 66.3955611491551 17.272762988442988 H 0.0 **** 0.06
9805 H 13.623099799072037 64.90913916038386 17.748709691804567 H 0.0 **** 0.06
9806 C 16.63812697574933 105.62398565640981 50.626971494661376 C 0.0 **** -0.24
9807 H 15.589983753293893 105.79566105253386 50.3823008505422 H 0.0 **** 0.06
9808 H 16.721328240874286 104.75198049853861 51.27604311827702 H 0.0 **** 0.06
9809 H 17.04041375994825 106.49769282429601 51.1386036411316 H 0.0 **** 0.06
9810 H 17.200872319689665 105.44879967460406 49.709626420943835 H 0.0 **** 0.06
9811 C 58.87465109689561 62.00739150395171 4.583695512103191 C 0.0 **** -0.24
9812 H 58.31590151367974 61.126470198056865 4.26836406658623 H 0.0 **** 0.06
9813 H 58.84388836385043 62.08725873711248 5.671070038252424 H 0.0 **** 0.06
9814 H 58.42916191478742 62.89793241394008 4.141040307752007 H 0.0 **** 0.06
9815 H 59.9105692083623 61.91793923866234 4.255384083060335 H 0.0 **** 0.06
9816 C 44.79071920609687 65.13599025962321 25.684355222285433 C 0.0 **** -0.24
9817 H 45.798044411953356 65.44620795506893 25.960221567807423 H 0.0 **** 0.06
9818 H 44.09959808199963 65.39123286330664 26.48693053212739 H 0.0 **** 0.06
9819 H 44.77464594607886 64.05848951896942 25.518671098770113 H 0.0 **** 0.06
9820 H 44.49108339100559 65.64831675109778 24.769435879283805 H 0.0 **** 0.06
9821 C 41.60693581365898 13.479436369407807 10.394887050400769 C 0.0 **** -0.24
9822 H 41.49578156011605 14.529380619598015 10.664646497715836 H 0.0 **** 0.06
9823 H 42.256103427583405 13.394765221569259 9.523652541742791 H 0.0 **** 0.06
9824 H 40.62817833170098 13.059785362223579 10.161222235525543 H 0.0 **** 0.06
9825 H 42.04624020614882 12.934206442929678 11.230906445832801 H 0.0 **** 0.06
9826 C 11.936551102494821 26.979264002481415 89.7925585528798 C 0.0 **** -0.24
9827 H 12.193418357496874 26.55794384783141 88.82013632633735 H 0.0 **** 0.06
9828 H 10.96805892872371 27.475728183089615 89.72867083124524 H 0.0 **** 0.06
9829 H 12.696731984967329 27.70273223154794 90.08697004898735 H 0.0 **** 0.06
9830 H 11.888287282056456 26.181643059474737 90.53306699668812 H 0.0 **** 0.06
9831 C 57.88320975878429 111.2959709956166 112.66283786696629 C 0.0 **** -0.24
9832 H 57.75648209561655 110.78986890475805 113.61968327917221 H 0.0 **** 0.06
9833 H 57.592903039530086 112.3412507077903 112.76234488828734 H 0.0 **** 0.06
9834 H 57.25615073033157 110.81407488280965 111.91187876508896 H 0.0 **** 0.06
9835 H 58.927453899747206 111.2356227085606 112.35619043255447 H 0.0 **** 0.06
9836 C 90.92791893275816 107.66381964955812 101.69027601483378 C 0.0 **** -0.24
9837 H 91.86915701527806 108.05738506571788 101.30794701738421 H 0.0 **** 0.06
9838 H 90.13609223533331 108.39683726320197 101.529017916861 H 0.0 **** 0.06
9839 H 91.02358084506321 107.46244328856562 102.75679825874965 H 0.0 **** 0.06
9840 H 90.6799199800814 106.74078911266778 101.16650075611142 H 0.0 **** 0.06
9841 C 64.71293233604601 79.38936379428606 99.62571817214234 C 0.0 **** -0.24
9842 H 65.25506334522464 80.29508948124368 99.35520698948852 H 0.0 **** 0.06
9843 H 63.880282516688254 79.64672997518099 100.28050922877279 H 0.0 **** 0.06
9844 H 65.38449020498734 78.7048873761344 100.14257634265385 H 0.0 **** 0.06
9845 H 64.33148516983076 78.9120123227689 98.72308479011613 H 0.0 **** 0.06
9846 C 55.522326546093566 76.5817021337221 11.889752256392597 C 0.0 **** -0.24
9847 H 56.58174122436676 76.44109079671506 11.676838318813566 H 0.0 **** 0.06
9848 H 55.351645705751366 76.49042490974858 12.962595641468624 H 0.0 **** 0.06
9849 H 54.94313262477417 75.823119225362 11.36275624810439 H 0.0 **** 0.06
9850 H 55.21328743239786 77.57235538340791 11.554427898388226 H 0.0 **** 0.06
9851 C 17.434501236355572 13.840271119922718 32.06400377116154 C 0.0 **** -0.24
9852 H 17.78506365117738 13.690253964669395 33.08558406095631 H 0.0 **** 0.06
9853 H 17.90243837229542 13.105034716935734 31.409155946829003 H 0.0 **** 0.06
9854 H 17.701825016560633 14.84379645389211 31.732159950793687 H 0.0 **** 0.06
9855 H 16.352121059915817 13.72151897792773 32.0300715112208 H 0.0 **** 0.06
9856 C 67.8371848726004 49.18669573403395 105.66879501654427 C 0.0 **** -0.24
9857 H 66.82998408162297 49.30994746573538 105.2689224760177 H 0.0 **** 0.06
9858 H 67.83968270071028 49.43518499266264 106.72968152772543 H 0.0 **** 0.06
9859 H 68.52257057887067 49.84813106462252 105.13795965622245 H 0.0 **** 0.06
9860 H 68.15569819033288 48.15237854249568 105.53660333967713 H 0.0 **** 0.06
9861 C 20.709042331500086 61.59622234216124 12.366170068468357 C 0.0 **** -0.24
9862 H 19.863663977978604 61.804628494535336 13.022303998017776 H 0.0 **** 0.06
9863 H 21.569505319306558 62.184382431769336 12.684946693258013 H 0.0 **** 0.06
9864 H 20.446352886073043 61.861331165241154 11.341777570941733 H 0.0 **** 0.06
9865 H 20.953684615116345 60.53501678339694 12.415711214758371 H 0.0 **** 0.06
9866 C 74.68781028790042 91.49113967066543 47.65916466050862 C 0.0 **** -0.24
9867 H 75.45925239564662 91.06238270720993 48.29846576747315 H 0.0 **** 0.06
9868 H 73.99767769456835 92.07822757692551 48.26721920588892 H 0.0 **** 0.06
9869 H 74.14190085940098 90.69078062243565 47.160861930095905 H 0.0 **** 0.06
9870 H 75.15215238347528 92.13576133294936 46.912393771249185 H 0.0 **** 0.06
9871 C 56.719416842473265 26.231541583473074 59.17679087130848 C 0.0 **** -0.24
9872 H 57.571560505435286 26.883798947922628 59.37165744271507 H 0.0 **** 0.06
9873 H 55.810578443231186 26.829569678157156 59.11507771403864 H 0.0 **** 0.06
9874 H 56.62521510216384 25.508167693763937 59.98697088961787 H 0.0 **** 0.06
9875 H 56.873875945383865 25.705217840759758 58.23544819694829 H 0.0 **** 0.06
9876 C 62.43252605756236 19.805986376222936 78.153093087895 C 0.0 **** -0.24
9877 H 62.74271882928685 18.77342895932767 77.99052600720859 H 0.0 **** 0.06
9878 H 61.99015819000338 20.200720774765223 77.23855506151762 H 0.0 **** 0.06
9879 H 63.2992687868796 20.40755757287255 78.42668497279783 H 0.0 **** 0.06
9880 H 61.6977487369488 19.841711641632166 78.95790202731831 H 0.0 **** 0.06
9881 C 29.74677769151414 109.40540322676466 67.67022822290113 C 0.0 **** -0.24
9882 H 29.375356230271507 108.83296940689871 68.52097970483175 H 0.0 **** 0.06
9883 H 30.499801632532012 110.11610329472896 68.01243694902945 H 0.0 **** 0.06
9884 H 28.9202132696594 109.94468681260537 67.20767243806984 H 0.0 **** 0.06
9885 H 30.190883178096186 108.72643065085043 66.94232235921186 H 0.0 **** 0.06
9886 C 7.179305607028219 75.39077084493161 4.549738737639757 C 0.0 **** -0.24
9887 H 6.4419795752509135 74.88230277246518 5.1696942545120805 H 0.0 **** 0.06
9888 H 8.153646980949864 75.35070353427537 5.0380848880229365 H 0.0 **** 0.06
9889 H 6.883782271965641 76.43138697305349 4.41343957689449 H 0.0 **** 0.06
9890 H 7.238722286268626 74.8996378179227 3.5782618100737693 H 0.0 **** 0.06
9891 C 54.31981078527997 75.37555901578475 103.00414808359727 C 0.0 **** -0.24
9892 H 55.37873537099847 75.5164160459056 102.78399928158677 H 0.0 **** 0.06
9893 H 54.20562683852927 74.590030495657 103.75121124384475 H 0.0 **** 0.06
9894 H 53.79452600951913 75.09089675820249 102.09330418502714 H 0.0 **** 0.06
9895 H 53.9026483956456 76.30625219730149 103.3890222784492 H 0.0 **** 0.06
9896 C 77.191071108068 30.633275564059865 110.20709293453868 C 0.0 **** -0.24
9897 H 77.48400089278897 29.86609466617734 110.92482622831557 H 0.0 **** 0.06
9898 H 78.07999833382132 31.0202272941384 109.70750388783972 H 0.0 **** 0.06
9899 H 76.68525453302516 31.444435462072 110.72892000391575 H 0.0 **** 0.06
9900 H 76.5176397400727 30.199750102262108 109.46780053576683 H 0.0 **** 0.06
9901 C 14.622301357229365 100.02625810401514 108.46951738592438 C 0.0 **** -0.24
9902 H 15.063196793613969 99.82225679883126 109.44535142926705 H 0.0 **** 0.06
9903 H 13.901154998145092 99.24507434203673 108.22771935830346 H 0.0 **** 0.06
9904 H 15.405971722525322 100.04416381349577 107.712678244268 H 0.0 **** 0.06
9905 H 14.117673922141634 100.9922539237638 108.49369658167322 H 0.0 **** 0.06
9906 C 26.759366357471485 56.38750877042441 77.71976679510772 C 0.0 **** -0.24
9907 H 26.5438417034444 55.71212383736574 76.89117234325491 H 0.0 **** 0.06
9908 H 27.409428921905686 57.191739803976446 77.3731393624551 H 0.0 **** 0.06
9909 H 27.257580487832314 55.83527456673376 78.5170405845245 H 0.0 **** 0.06
9910 H 25.82830311314725 56.80908379335383 78.09602337695989 H 0.0 **** 0.06
9911 C 5.42625938806961 20.044664717539405 92.87714461930008 C 0.0 **** -0.24
9912 H 5.851181351093388 19.10664750816923 92.52102472098775 H 0.0 **** 0.06
9913 H 4.623058716026662 19.834582205106045 93.58404380408214 H 0.0 **** 0.06
9914 H 5.029431262727854 20.60707553430194 92.03178438874318 H 0.0 **** 0.06
9915 H 6.20168091684684 20.62946988648821 93.37137910319186 H 0.0 **** 0.06
9916 C 104.08640853907721 102.96669084514156 5.8546617368963325 C 0.0 **** -0.24
9917 H 104.1328375954744 101.99898498669617 6.354264689496006 H 0.0 **** 0.06
9918 H 105.0988081625828 103.33195039064262 5.677140027364487 H 0.0 **** 0.06
9919 H 103.54982352202424 103.67520576667872 6.485288002600612 H 0.0 **** 0.06
9920 H 103.56613830943704 102.86047862010687 4.903398276609607 H 0.0 **** 0.06
9921 C 110.54823709088375 95.85857526187175 98.81513797994617 C 0.0 **** -0.24
9922 H 111.09057927756422 95.79814951198074 99.75890441953385 H 0.0 **** 0.06
9923 H 109.54905186726707 95.43960946512925 98.94333340318892 H 0.0 **** 0.06
9924 H 111.08391779113997 95.29384750119277 98.0523817221742 H 0.0 **** 0.06
9925 H 110.46894913221671 96.90104773998996 98.50768894200812 H 0.0 **** 0.06
9926 C 109.07505974248045 33.37913666607875 65.4615767269793 C 0.0 **** -0.24
9927 H 108.34422526845754 32.674210213545386 65.85835888258927 H 0.0 **** 0.06
9928 H 108.65828876827874 34.386020401393736 65.48506046950658 H 0.0 **** 0.06
9929 H 109.31716912679184 33.109402451742305 64.43289311565118 H 0.0 **** 0.06
9930 H 109.98026878095442 33.345023854665115 66.06846250405812 H 0.0 **** 0.06
9931 C 75.24367861992783 31.33391860923433 106.98801644172262 C 0.0 **** -0.24
9932 H 75.38432176589228 30.258624528116854 106.88042691358204 H 0.0 **** 0.06
9933 H 75.14844614943135 31.788526257087597 106.00144049045247 H 0.0 **** 0.06
9934 H 76.10289032540052 31.762602433103325 107.5047628662789 H 0.0 **** 0.06
9935 H 74.33905623898701 31.525921218629605 107.56543549657718 H 0.0 **** 0.06
9936 C 40.08404311500257 22.69697719345959 22.92332122405955 C 0.0 **** -0.24
9937 H 39.67359088151554 23.662218671012397 23.222110982016545 H 0.0 **** 0.06
9938 H 40.26773149074543 22.698162990232646 21.84837907262937 H 0.0 **** 0.06
9939 H 39.37351801994947 21.908347857172302 23.16969738733789 H 0.0 **** 0.06
9940 H 41.020645091067536 22.521210520409937 23.452463175820526 H 0.0 **** 0.06
9941 C 58.942939646907604 36.70154206013706 60.989109493236356 C 0.0 **** -0.24
9942 H 58.13752558993758 37.40460864156027 61.200499996048904 H 0.0 **** 0.06
9943 H 59.273282370466376 36.82704273703736 59.957714473865565 H 0.0 **** 0.06
9944 H 58.58435371674062 35.68318893772786 61.13434502631685 H 0.0 **** 0.06
9945 H 59.777810883727426 36.89313562028467 61.66275649442463 H 0.0 **** 0.06
9946 C 48.20776810611065 59.900050905865726 112.37887598425795 C 0.0 **** -0.24
9947 H 48.485272972646385 59.30939920164553 111.50580439226249 H 0.0 **** 0.06
9948 H 47.218905985938704 60.33213329293437 112.22640995520044 H 0.0 **** 0.06
9949 H 48.93568553317575 60.698461675483685 112.52404784385953 H 0.0 **** 0.06
9950 H 48.19234815004717 59.25791122306313 113.26043275178404 H 0.0 **** 0.06
9951 C 36.89822695499028 59.84860782083592 23.95291064742355 C 0.0 **** -0.24
9952 H 36.34079343501563 59.21123413612975 24.639513198725552 H 0.0 **** 0.06
9953 H 36.44008023651615 59.804707492653506 22.965109703205428 H 0.0 **** 0.06
9954 H 37.92898622971737 59.49990604813269 23.89166716369685 H 0.0 **** 0.06
9955 H 36.88302974284446 60.87556057253997 24.317317638098743 H 0.0 **** 0.06
9956 C 52.73506023730779 35.07575680950856 48.803320420756336 C 0.0 **** -0.24
9957 H 52.4137299217299 36.115062894742664 48.88245428354628 H 0.0 **** 0.06
9958 H 51.8765241410128 34.44843800183378 48.56064501178216 H 0.0 **** 0.06
9959 H 53.16406196088584 34.75478257083108 49.75224740238784 H 0.0 **** 0.06
9960 H 53.484026363771264 34.987415609319214 48.01681363716742 H 0.0 **** 0.06
9961 C 0.35321594463832184 86.51723175645515 42.23678486668234 C 0.0 **** -0.24
9962 H -0.20000514444893724 87.4377701724074 42.05470863095559 H 0.0 **** 0.06
9963 H 0.7367127754451701 86.51976346400448 43.25746415226888 H 0.0 **** 0.06
9964 H 1.1862185488274974 86.44951717886266 41.5360232317845 H 0.0 **** 0.06
9965 H -0.3083345317304804 85.66178352342655 42.0988656949101 H 0.0 **** 0.06
9966 C 91.06567097817265 81.2954067533035 73.61168855697662 C 0.0 **** -0.24
9967 H 91.3165971412842 80.25063938706205 73.42865414698599 H 0.0 **** 0.06
9968 H 89.98778548318404 81.43065998609353 73.51688417922674 H 0.0 **** 0.06
9969 H 91.57679087430952 81.92421180354725 72.88364943055785 H 0.0 **** 0.06
9970 H 91.38001505290634 81.57351743323639 74.6174537484959 H 0.0 **** 0.06
9971 C 21.45462773803962 18.3328273900963 79.23640068917638 C 0.0 **** -0.24
9972 H 22.49282201919044 18.50797899489737 78.95715912922554 H 0.0 **** 0.06
9973 H 20.829774672110943 18.356177573766416 78.34301059350463 H 0.0 **** 0.06
9974 H 21.12827103368673 19.108062818408882 79.92960896824252 H 0.0 **** 0.06
9975 H 21.36664551355892 17.35689422939322 79.71539658685083 H 0.0 **** 0.06
9976 C 102.77175303137057 53.492684194722045 49.216578495818055 C 0.0 **** -0.24
9977 H 103.8155200657416 53.17605685931355 49.23147820990148 H 0.0 **** 0.06
9978 H 102.25214103016151 52.98921957847918 48.40017403409298 H 0.0 **** 0.06
9979 H 102.72112246900835 54.571585177820936 49.06896203215095 H 0.0 **** 0.06
9980 H 102.3002114660944 53.23268781830561 50.163786906007125 H 0.0 **** 0.06
9981 C 100.09662212375386 112.12014755530157 83.88488645642249 C 0.0 **** -0.24
9982 H 99.58544899868656 111.37916177164125 84.49994297863566 H 0.0 **** 0.06
9983 H 99.63678816295462 113.09743228596929 84.03578291583969 H 0.0 **** 0.06
9984 H 100.01503600431047 111.83759822768664 82.83462027380284 H 0.0 **** 0.06
9985 H 101.14800511985928 112.1648730909022 84.16771285489335 H 0.0 **** 0.06
9986 C 17.36363131060355 57.75364244053702 95.934588003669 C 0.0 **** -0.24
9987 H 18.39374213920857 57.40161053849337 95.99321933107805 H 0.0 **** 0.06
9988 H 17.275373480517175 58.70666804778256 96.45573108448633 H 0.0 **** 0.06
9989 H 16.703100909344187 57.021784151433536 96.40032233179082 H 0.0 **** 0.06
9990 H 17.08252712308206 57.88221405385693 94.88991288800165 H 0.0 **** 0.06
9991 C 12.651007918067222 77.88434524508094 56.9797352819675 C 0.0 **** -0.24
9992 H 12.683260029272589 78.4533110611556 56.05019661629592 H 0.0 **** 0.06
9993 H 13.23584798032573 76.97080649057486 56.86646344032658 H 0.0 **** 0.06
9994 H 11.617085801016344 77.62886169808397 57.21270229171144 H 0.0 **** 0.06
9995 H 13.06778725639262 78.48542946947245 57.78694407926458 H 0.0 **** 0.06
9996 C 53.020378149076684 56.453519692183704 12.823932367556829 C 0.0 **** -0.24
9997 H 53.51842702724098 55.57716733198521 12.408839294396635 H 0.0 **** 0.06
9998 H 53.76089763836866 57.221263325396876 13.048184432303582 H 0.0 **** 0.06
9999 H 52.49687214741348 56.17442421219681 13.738464259506888 H 0.0 **** 0.06
10000 H 52.303137938656015 56.84091332169618 12.099840462777216 H 0.0 **** 0.06
10001 C 25.73171385129052 27.261038579567668 37.25721704927503 C 0.0 **** -0.24
10002 H 24.918818935828597 26.556879924318366 37.43731671454282 H 0.0 **** 0.06
10003 H 26.554769546614324 27.04634601672589 37.93757777656302 H 0.0 **** 0.06
10004 H 25.375464450975187 28.277997748291483 37.42573376620442 H 0.0 **** 0.06
10005 H 26.075123699391554 27.162249445456553 36.22707345864288 H 0.0 **** 0.06
10006 C 82.28157534279796 21.11305443018451 10.62684669575252 C 0.0 **** -0.24
10007 H 81.47982303399749 20.47653638907986 11.002075220240442 H 0.0 **** 0.06
10008 H 82.33201412003115 22.022837249701453 11.224589541100926 H 0.0 **** 0.06
10009 H 82.08392368789805 21.37076412508069 9.58668522402975 H 0.0 **** 0.06
10010 H 83.22989785135721 20.579577920732735 10.695188854075909 H 0.0 **** 0.06
10011 C 109.8295293062443 57.53127251493461 64.82270578769607 C 0.0 **** -0.24
10012 H 109.88035836751868 57.20456391450655 65.86172663979917 H 0.0 **** 0.06
10013 H 109.2102597941433 58.42542409386035 64.75300212023797 H 0.0 **** 0.06
10014 H 109.39445342546733 56.73833657824105 64.21412712786045 H 0.0 **** 0.06
10015 H 110.83400049956984 57.755980509615675 64.46383068849312 H 0.0 **** 0.06
10016 C 86.11375075018088 79.77679222024497 30.19624956834201 C 0.0 **** -0.24
10017 H 85.39570343960423 79.74985597226078 29.37586005161998 H 0.0 **** 0.06
10018 H 86.48225247717201 80.7945956375325 30.32268946744057 H 0.0 **** 0.06
10019 H 86.9471077047098 79.11212342375899 29.97065720681303 H 0.0 **** 0.06
10020 H 85.6260496804033 79.44969218844153 31.11476285008763 H 0.0 **** 0.06
10021 C 95.37248977868614 64.97692161755103 5.87989869481909 C 0.0 **** -0.24
10022 H 94.40034211966116 65.13304516838164 6.347489065461929 H 0.0 **** 0.06
10023 H 95.23042106149444 64.67905985048483 4.840292362179966 H 0.0 **** 0.06
10024 H 95.91132045296905 64.19314020001852 6.4125426644378365 H 0.0 **** 0.06
10025 H 95.94653650323113 65.90283160906861 5.916809952718907 H 0.0 **** 0.06
10026 C 48.42795280518942 76.66225384707025 73.72599500657392 C 0.0 **** -0.24
10027 H 47.564596583869644 77.2253054632811 73.36997062183616 H 0.0 **** 0.06
10028 H 48.342035266590585 76.5086439653656 74.80130776274774 H 0.0 **** 0.06
10029 H 49.33878730611378 77.21931292413342 73.5098885440901 H 0.0 **** 0.06
10030 H 48.46356786449857 75.69673047112178 73.22255036913532 H 0.0 **** 0.06
10031 C 62.15180098979738 102.49707855203135 83.47908383403211 C 0.0 **** -0.24
10032 H 62.513798707993715 102.88234714048863 84.43225651060271 H 0.0 **** 0.06
10033 H 61.617941824286845 101.56106310731707 83.64570290006358 H 0.0 **** 0.06
10034 H 62.996294659206455 102.32098681440772 82.81349125573036 H 0.0 **** 0.06
10035 H 61.47712019699571 103.22435315615428 83.02566795559665 H 0.0 **** 0.06
10036 C 101.59882898260906 31.627616372890742 51.20836237941853 C 0.0 **** -0.24
10037 H 101.6863104224555 31.280648171376342 50.17913334175233 H 0.0 **** 0.06
10038 H 100.89230107377 30.994428038974704 51.745378449768396 H 0.0 **** 0.06
10039 H 101.24309969818202 32.65753030045668 51.215800349786065 H 0.0 **** 0.06
10040 H 102.57449781019326 31.576089188807153 51.692102708006956 H 0.0 **** 0.06
10041 C 26.360355531404593 12.409626870003791 17.77669150139647 C 0.0 **** -0.24
10042 H 27.11930795346771 12.152803218307042 17.036846725295135 H 0.0 **** 0.06
10043 H 26.48862178641417 11.784433271234604 18.660395711010437 H 0.0 **** 0.06
10044 H 25.369656590548573 12.241832638085697 17.352369472764025 H 0.0 **** 0.06
10045 H 26.46366751766203 13.458634963059865 18.053940551398654 H 0.0 **** 0.06
10046 C 80.82327292710193 35.479748540462836 16.605134104473734 C 0.0 **** -0.24
10047 H 81.6270024880194 35.175622150990364 17.274920834943515 H 0.0 **** 0.06
10048 H 81.00610352213607 35.0719535996642 15.610596679005454 H 0.0 **** 0.06
10049 H 80.7871057381933 36.56725047338068 16.55101570010271 H 0.0 **** 0.06
10050 H 79.87291174714977 35.10250447310807 16.98289320310468 H 0.0 **** 0.06
10051 C 88.05121978070571 46.783316012371785 108.09139547443486 C 0.0 **** -0.24
10052 H 87.77030073788424 45.8143863752976 107.6773081621275 H 0.0 **** 0.06
10053 H 87.26141356333918 47.5071131245616 107.89090543466604 H 0.0 **** 0.06
10054 H 88.9788031888572 47.12013545599875 107.62857577883783 H 0.0 **** 0.06
10055 H 88.19618199475474 46.69043459852301 109.16828286810423 H 0.0 **** 0.06
10056 C 89.74437318844264 10.725045926717968 56.23064495998514 C 0.0 **** -0.24
10057 H 89.60472065728914 9.841738934614241 55.607001351923486 H 0.0 **** 0.06
10058 H 88.80854289779569 11.282236568475426 56.28654412928316 H 0.0 **** 0.06
10059 H 90.51835532616929 11.357441936220823 55.795420484743914 H 0.0 **** 0.06
10060 H 90.04583398555599 10.419209126243572 57.23271813857028 H 0.0 **** 0.06
10061 C 93.30314946226841 14.752746931787385 25.848654733526153 C 0.0 **** -0.24
10062 H 94.1071405100216 15.194849744874318 25.260849624645683 H 0.0 **** 0.06
10063 H 92.86034048345667 15.515721442918135 26.490930875307996 H 0.0 **** 0.06
10064 H 93.70328563553349 13.948051092663235 26.463766853551817 H 0.0 **** 0.06
10065 H 92.54103821858607 14.35443305647334 25.179382099642407 H 0.0 **** 0.06
10066 C 96.59172822364681 89.56041539188533 78.4262464850647 C 0.0 **** -0.24
10067 H 96.80359362180249 90.43365837207446 77.80811282536328 H 0.0 **** 0.06
10068 H 96.3998192433749 89.87908342804502 79.45049937375066 H 0.0 **** 0.06
10069 H 97.44963563395783 88.88809750306123 78.40907286424277 H 0.0 **** 0.06
10070 H 95.71612918511238 89.04248109867063 78.03553463216019 H 0.0 **** 0.06
10071 C 17.258389490047833 37.054476576623514 24.242357656941437 C 0.0 **** -0.24
10072 H 16.575947272320235 37.87151511500567 24.006915369832114 H 0.0 **** 0.06
10073 H 18.25802996562092 37.301681089341216 23.884164592089604 H 0.0 **** 0.06
10074 H 16.913547979969394 36.141519917871726 23.75689307463658 H 0.0 **** 0.06
10075 H 17.285919858394777 36.90459855037633 25.32151984554585 H 0.0 **** 0.06
10076 C 97.45881563894366 8.375900426772347 7.103548445548142 C 0.0 **** -0.24
10077 H 97.50022573325958 8.095733126598759 6.051902227471118 H 0.0 **** 0.06
10078 H 97.24234163099484 9.441584167437384 7.187206320774749 H 0.0 **** 0.06
10079 H 98.41924970446033 8.162788055223047 7.574310582951583 H 0.0 **** 0.06
10080 H 96.67601086677718 7.805187063678744 7.60152358882759 H 0.0 **** 0.06
10081 C 36.19003933738528 71.1607359921627 24.838407744719916 C 0.0 **** -0.24
10082 H 36.55355307177245 71.71654322489397 25.70340921413885 H 0.0 **** 0.06
10083 H 37.02364518580274 70.93658386626174 24.173719518210742 H 0.0 **** 0.06
10084 H 35.451229680962285 71.7608237234252 24.307042138990365 H 0.0 **** 0.06
10085 H 35.7296618678683 70.23069302954323 25.17259645143974 H 0.0 **** 0.06
10086 C 104.60435944125521 21.988912910566164 22.561685249922874 C 0.0 **** -0.24
10087 H 104.74785044905593 22.125654320777688 23.63350216796735 H 0.0 **** 0.06
10088 H 104.33598181425305 22.94280124160287 22.105839900116763 H 0.0 **** 0.06
10089 H 103.80479722813726 21.267064052139403 22.39217141789291 H 0.0 **** 0.06
10090 H 105.52768829786834 21.619374448750516 22.115642051930394 H 0.0 **** 0.06
10091 C 69.57658891412328 51.26233620353122 100.61525133164872 C 0.0 **** -0.24
10092 H 68.8158398659526 51.85826022935549 100.11127829990465 H 0.0 **** 0.06
10093 H 70.29394253688076 51.92405978650822 101.10040497219762 H 0.0 **** 0.06
10094 H 70.09281831063515 50.63981015903011 99.88321442937445 H 0.0 **** 0.06
10095 H 69.10436120262708 50.6266797217657 101.36339713320925 H 0.0 **** 0.06
10096 C 110.1188364280394 44.932260655975654 68.97691270904664 C 0.0 **** -0.24
10097 H 110.39416056457821 43.939314751409654 69.33566551142593 H 0.0 **** 0.06
10098 H 111.00673291183955 45.56280370325038 68.93706729585091 H 0.0 **** 0.06
10099 H 109.38886849536709 45.373193664899304 69.65507879234457 H 0.0 **** 0.06
10100 H 109.68621237618447 44.85048416842477 67.98009758532575 H 0.0 **** 0.06
10101 C 107.07438916740819 65.76944578419287 64.24637687744166 C 0.0 **** -0.24
10102 H 106.95003422649842 65.94919661862525 63.178012736893265 H 0.0 **** 0.06
10103 H 106.09520103513395 65.6576005222093 64.712646825087 H 0.0 **** 0.06
10104 H 107.59843773894517 66.61295486543182 64.69730258276212 H 0.0 **** 0.06
10105 H 107.65460386222557 64.85887236731159 64.39560270549401 H 0.0 **** 0.06
10106 C 105.61523665261342 100.5200883250618 111.54539658809134 C 0.0 **** -0.24
10107 H 106.56870536757643 101.00252677131195 111.75923745201379 H 0.0 **** 0.06
10108 H 105.50574234005418 100.3942355863627 110.46718900074957 H 0.0 **** 0.06
10109 H 104.80166578581421 101.13959945748732 111.9232706579009 H 0.0 **** 0.06
10110 H 105.58410612706109 99.54474276542382 112.03050821540134 H 0.0 **** 0.06
10111 C 1.9272152353161385 40.33305712416782 85.54391017411388 C 0.0 **** -0.24
10112 H 1.5242502325067715 40.95790941157057 86.34127160014648 H 0.0 **** 0.06
10113 H 1.9902864198488999 39.30100319088061 85.88958071447058 H 0.0 **** 0.06
10114 H 2.9225502013269526 40.68724192297614 85.27349773140944 H 0.0 **** 0.06
10115 H 1.273006276113561 40.386726042935294 84.67394715648854 H 0.0 **** 0.06
10116 C 53.47000316915562 62.96682689471626 101.88627772428626 C 0.0 **** -0.24
10117 H 52.545887627821166 62.990697149373034 102.46165753464774 H 0.0 **** 0.06
10118 H 53.452611320976175 62.116481009270046 101.20465041924902 H 0.0 **** 0.06
10119 H 54.31831455644026 62.87175086212687 102.56390794340217 H 0.0 **** 0.06
10120 H 53.564814147189 63.89015672500082 101.31309764453331 H 0.0 **** 0.06
10121 C 80.49211390936864 80.06543278264465 36.83389744964364 C 0.0 **** -0.24
10122 H 80.60280525767303 80.98253330248207 36.254964402069845 H 0.0 **** 0.06
10123 H 80.52395846061859 79.20642610507403 36.16194732218088 H 0.0 **** 0.06
10124 H 79.53695080775185 80.0815222451387 37.35958653642837 H 0.0 **** 0.06
10125 H 81.30402332271854 79.99139138537652 37.55675380780636 H 0.0 **** 0.06
10126 C 85.84532934170099 44.5460184035092 95.766507930443 C 0.0 **** -0.24
10127 H 86.43571309875577 45.385711908449785 95.40262043329508 H 0.0 **** 0.06
10128 H 86.49014093044283 43.861625808960824 96.31841935428244 H 0.0 **** 0.06
10129 H 85.39852352804465 44.022135286860376 94.92186042908861 H 0.0 **** 0.06
10130 H 85.05801809426467 44.912846753560835 96.42445876952976 H 0.0 **** 0.06
10131 C 62.76061107191947 16.05411979745429 110.79928555184513 C 0.0 **** -0.24
10132 H 62.77198768339167 17.135544770994244 110.94051965356762 H 0.0 **** 0.06
10133 H 63.42706357808754 15.789403858052111 109.9786273427954 H 0.0 **** 0.06
10134 H 61.74705110366875 15.729669506543047 110.56573784097009 H 0.0 **** 0.06
10135 H 63.09648933162498 15.565837087816277 111.71333921650879 H 0.0 **** 0.06
10136 C 52.23747389179965 21.80566929356607 16.28313028255195 C 0.0 **** -0.24
10137 H 51.26745771927182 21.317648348743603 16.17912223059639 H 0.0 **** 0.06
10138 H 52.83338722041577 21.272549059736292 17.023762105600042 H 0.0 **** 0.06
10139 H 52.0918414573365 22.836355743248816 16.60629435543217 H 0.0 **** 0.06
10140 H 52.753305826203075 21.79491197199755 15.323886316905941 H 0.0 **** 0.06
10141 C 26.171350608471954 66.21940194106503 16.442120773851286 C 0.0 **** -0.24
10142 H 26.957671851583655 66.4997155919394 17.14301416869597 H 0.0 **** 0.06
10143 H 26.615022670945862 65.7322618628248 15.574280933137402 H 0.0 **** 0.06
10144 H 25.634876115051185 67.11346150040353 16.123340207097613 H 0.0 **** 0.06
10145 H 25.47763394343194 65.53408759866542 16.928978885246465 H 0.0 **** 0.06
10146 C 46.31606228876814 108.355525658829 108.09427709363398 C 0.0 **** -0.24
10147 H 47.32277709447624 108.19509256275286 107.70648462839904 H 0.0 **** 0.06
10148 H 45.610057579785746 108.39439165276319 107.26530959093047 H 0.0 **** 0.06
10149 H 46.28531860177537 109.29602185344697 108.64464255320144 H 0.0 **** 0.06
10150 H 46.04936822998809 107.53525299006341 108.76136964168964 H 0.0 **** 0.06
10151 C 98.32030670534405 81.35542036041443 109.38933644667044 C 0.0 **** -0.24
10152 H 98.53599805173906 82.36713477214266 109.73447938061426 H 0.0 **** 0.06
10153 H 98.18958903050441 81.36133173300243 108.3073053361498 H 0.0 **** 0.06
10154 H 97.40688900664256 80.9970191277639 109.86459330882838 H 0.0 **** 0.06
10155 H 99.14945232053765 80.69799236725584 109.65247789091225 H 0.0 **** 0.06
10156 C 81.7117593281042 106.89362520988657 112.6651142692302 C 0.0 **** -0.24
10157 H 82.71657099641087 107.09552710241815 112.29486774030721 H 0.0 **** 0.06
10158 H 80.9846204361603 107.11603467707285 111.88450398294283 H 0.0 **** 0.06
10159 H 81.51317198619023 107.51920115556666 113.53553842534802 H 0.0 **** 0.06
10160 H 81.63336474515359 105.84361259090358 112.94789370506018 H 0.0 **** 0.06
10161 C 25.672713481727094 112.38769639239158 103.64452601089852 C 0.0 **** -0.24
10162 H 25.701720084862018 111.32311743160481 103.41467479713592 H 0.0 **** 0.06
10163 H 26.319076645560116 112.92698632385084 102.95061424769548 H 0.0 **** 0.06
10164 H 26.020428876181 112.54969045646703 104.66478201580372 H 0.0 **** 0.06
10165 H 24.650472553318473 112.75338321358439 103.54678128428642 H 0.0 **** 0.06
10166 C 98.92622751267547 1.861706486271757 14.753136037252485 C 0.0 **** -0.24
10167 H 98.15062254475441 2.372575332202345 15.324833001194065 H 0.0 **** 0.06
10168 H 99.84718105564895 1.8345288576826704 15.334727202445347 H 0.0 **** 0.06
10169 H 99.10074837428641 2.396615507010054 13.819862674989889 H 0.0 **** 0.06
10170 H 98.60441991899816 0.8438665644881382 14.533937205511492 H 0.0 **** 0.06
10171 C 49.84747820420039 60.621749626207446 100.02902599505103 C 0.0 **** -0.24
10172 H 49.52377218670988 59.58094002984771 100.00679506456945 H 0.0 **** 0.06
10173 H 49.95831196560815 60.945487294831054 101.06373859634456 H 0.0 **** 0.06
10174 H 49.10309775000776 61.2438355101003 99.53106682374346 H 0.0 **** 0.06
10175 H 50.802822747017565 60.71633595431891 99.51340832071895 H 0.0 **** 0.06
10176 C 24.80913942624771 57.77874393210436 6.5868882322032505 C 0.0 **** -0.24
10177 H 24.80346506224879 57.973459471770525 5.513869071719455 H 0.0 **** 0.06
10178 H 23.785325974349817 57.65042023103328 6.938298869316583 H 0.0 **** 0.06
10179 H 25.26979074093856 58.61920795282634 7.105438085315882 H 0.0 **** 0.06
10180 H 25.37982236983534 56.8708392696212 6.787399102153131 H 0.0 **** 0.06
10181 C 32.459597392258075 49.54234728163373 91.61209687745193 C 0.0 **** -0.24
10182 H 32.2165137298426 49.745956625188555 90.56901011937845 H 0.0 **** 0.06
10183 H 31.94049745590391 48.64083184771362 91.93701925170308 H 0.0 **** 0.06
10184 H 32.14534942940767 50.385687003954686 92.2283953574466 H 0.0 **** 0.06
10185 H 33.53567808373157 49.400171223635205 91.71283771117513 H 0.0 **** 0.06
10186 C 74.88467603061906 98.2241294594875 23.60402807529684 C 0.0 **** -0.24
10187 H 74.40870497075014 97.74864390530948 24.461317056892582 H 0.0 **** 0.06
10188 H 75.29058377022454 99.19013589333915 23.903502345812882 H 0.0 **** 0.06
10189 H 74.14763228764292 98.36850975805936 22.812711221889167 H 0.0 **** 0.06
10190 H 75.6908607714355 97.58857222637161 23.23773372211154 H 0.0 **** 0.06
10191 C 42.95007919936147 58.693882857644205 5.505150563002076 C 0.0 **** -0.24
10192 H 43.19459532849464 58.088955476481466 6.378822794640314 H 0.0 **** 0.06
10193 H 43.4678443950567 59.65102381597868 5.570333362329734 H 0.0 **** 0.06
10194 H 41.87444298146299 58.86426475754427 5.470740188689376 H 0.0 **** 0.06
10195 H 43.26437693000669 58.17156379949163 4.601723139525063 H 0.0 **** 0.06
10196 C 84.20573877055125 23.57878793771644 80.63109897631233 C 0.0 **** -0.24
10197 H 83.67954759360128 24.357515214111288 80.0778394196845 H 0.0 **** 0.06
10198 H 83.68306186142229 23.38430549650286 81.56855879800614 H 0.0 **** 0.06
10199 H 85.22257164560065 23.907895417781504 80.84276262810292 H 0.0 **** 0.06
10200 H 84.23457464146784 22.666296042593416 80.03507845800848 H 0.0 **** 0.06
10201 C 3.9733442223772073 19.466756710137133 33.289619519856366 C 0.0 **** -0.24
10202 H 4.137162853420904 19.92105881343514 34.26610370710959 H 0.0 **** 0.06
10203 H 4.425202708215082 18.474931017132633 33.27007206376092 H 0.0 **** 0.06
10204 H 4.428344898465113 20.08906753592248 32.51798676915885 H 0.0 **** 0.06
10205 H 2.9022562557765923 19.382735260591176 33.10319954565702 H 0.0 **** 0.06
10206 C 57.71403113563639 86.07967616650464 65.90736610416013 C 0.0 **** -0.24
10207 H 58.31657795220656 86.98554751140571 65.9763215105014 H 0.0 **** 0.06
10208 H 56.89044793716687 86.24331339500122 65.21166572542592 H 0.0 **** 0.06
10209 H 57.31589003104216 85.83229006246421 66.89081569476025 H 0.0 **** 0.06
10210 H 58.334924754061774 85.25785361271326 65.54925962095763 H 0.0 **** 0.06
10211 C 85.00015821550579 98.80053761483919 26.94989774740668 C 0.0 **** -0.24
10212 H 84.25203382174232 98.25808574505842 26.372361414763247 H 0.0 **** 0.06
10213 H 85.93830546152574 98.82603472959383 26.395760565251805 H 0.0 **** 0.06
10214 H 85.15561977914899 98.29697650704122 27.904996908648997 H 0.0 **** 0.06
10215 H 84.65461975595821 99.81837494076782 27.128152305301484 H 0.0 **** 0.06
10216 C 38.5673948606962 58.34562984966522 3.198853070062814 C 0.0 **** -0.24
10217 H 37.88440970638442 58.97539618764974 2.6283707722084078 H 0.0 **** 0.06
10218 H 39.09220256949061 57.67198709148112 2.521240563998507 H 0.0 **** 0.06
10219 H 38.000619405430314 57.76145431493671 3.9247959026938197 H 0.0 **** 0.06
10220 H 39.28974391041032 58.972200746050795 3.721169162399651 H 0.0 **** 0.06
10221 C 19.41323762882281 45.24223688987718 83.71351135895185 C 0.0 **** -0.24
10222 H 18.690083249405482 45.578858617859794 82.97046226117979 H 0.0 **** 0.06
10223 H 20.37183775233082 45.730027806693045 83.53363841180314 H 0.0 **** 0.06
10224 H 19.53527945695917 44.1622083354751 83.63712777546223 H 0.0 **** 0.06
10225 H 19.055642180887705 45.49911219204523 84.7102866223708 H 0.0 **** 0.06
10226 C 10.346463504219425 5.3478370771330646 51.70225815990588 C 0.0 **** -0.24
10227 H 10.209318381437608 5.424999840036605 50.6230757904832 H 0.0 **** 0.06
10228 H 11.130853339023108 4.621164582581457 51.91634254041037 H 0.0 **** 0.06
10229 H 9.414243498124765 5.0232635987605505 52.16329963441251 H 0.0 **** 0.06
10230 H 10.631374925159669 6.320168662268159 52.10300884240789 H 0.0 **** 0.06
10231 C 101.60642478532603 100.66512713161177 21.566280181838522 C 0.0 **** -0.24
10232 H 100.60039175877455 100.6210914966976 21.982428895724695 H 0.0 **** 0.06
10233 H 102.0224270422259 99.65880174858376 21.513244708223198 H 0.0 **** 0.06
10234 H 102.23749996361659 101.28564343527626 22.20400122797352 H 0.0 **** 0.06
10235 H 101.56830679055926 101.09562227018583 20.56532944544867 H 0.0 **** 0.06
10236 C 53.05104729981665 88.51301345123335 100.51862877594752 C 0.0 **** -0.24
10237 H 53.432673535316525 89.3609967662949 101.08743376187647 H 0.0 **** 0.06
10238 H 52.22488071069918 88.05394971308013 101.06307871174289 H 0.0 **** 0.06
10239 H 53.846644143892505 87.78045377025865 100.3814012827593 H 0.0 **** 0.06
10240 H 52.69962283740137 88.8552286041515 99.54604153708564 H 0.0 **** 0.06
10241 C 65.23270319198377 17.485743754042858 108.8387143704157 C 0.0 **** -0.24
10242 H 65.16812162965078 16.402404979395357 108.74122762676708 H 0.0 **** 0.06
10243 H 65.89535301652461 17.737732325845144 109.66634008839894 H 0.0 **** 0.06
10244 H 64.24000127641813 17.892499241385394 109.03162956224332 H 0.0 **** 0.06
10245 H 65.6253486897541 17.911183727382337 107.91508309060087 H 0.0 **** 0.06
10246 C 54.026726166291155 88.9883963856447 69.41203051256258 C 0.0 **** -0.24
10247 H 53.064878522819356 88.69071630396041 69.82836813112814 H 0.0 **** 0.06
10248 H 54.15595340687372 88.5286106786867 68.43197600263761 H 0.0 **** 0.06
10249 H 54.82687710729627 88.66152837005635 70.07671405100476 H 0.0 **** 0.06
10250 H 54.05889694336216 90.073419000596 69.31291765998569 H 0.0 **** 0.06
10251 C 79.21847843365867 68.83162663307516 71.03181216109081 C 0.0 **** -0.24
10252 H 79.65352270832 67.83456215418116 70.95236164132024 H 0.0 **** 0.06
10253 H 79.5317378513331 69.29059489194086 71.97092781576237 H 0.0 **** 0.06
10254 H 78.13112538743621 68.75633636965298 71.00900552177885 H 0.0 **** 0.06
10255 H 79.55797306276747 69.4434047634343 70.19644202497756 H 0.0 **** 0.06
10256 C 16.64615460584929 65.62440024805409 69.68167865134916 C 0.0 **** -0.24
10257 H 15.974755441089712 66.46684834352513 69.51305538900255 H 0.0 **** 0.06
10258 H 16.386358474393205 65.1367643656998 70.62131401222405 H 0.0 **** 0.06
10259 H 17.673401527064016 65.9830717744139 69.72830238582804 H 0.0 **** 0.06
10260 H 16.546036163461338 64.9123753944803 68.86288792322944 H 0.0 **** 0.06
10261 C 35.68374844320573 91.14033409319319 84.20659082796351 C 0.0 **** -0.24
10262 H 35.821562268371906 90.95690202143226 83.14139208211066 H 0.0 **** 0.06
10263 H 36.63466469320451 91.00867094165176 84.72423894305086 H 0.0 **** 0.06
10264 H 34.95333243610406 90.43571313953476 84.60422653875878 H 0.0 **** 0.06
10265 H 35.325826937819045 92.15824539886856 84.35727292528122 H 0.0 **** 0.06
10266 C 25.89603702517806 51.172550013174714 73.05077320920807 C 0.0 **** -0.24
10267 H 26.47211578830317 51.88081703899013 73.64567944547099 H 0.0 **** 0.06
10268 H 26.03572093730213 51.38954475158772 71.99166410732516 H 0.0 **** 0.06
10269 H 24.839173717218586 51.26198771566209 73.30484074977733 H 0.0 **** 0.06
10270 H 26.23547952528665 50.1589957556597 73.26354286835362 H 0.0 **** 0.06
10271 C 15.643794646848178 71.38752053264568 8.50453105211875 C 0.0 **** -0.24
10272 H 16.56496894482179 71.81893221799044 8.89753018479368 H 0.0 **** 0.06
10273 H 15.865191525637076 70.822483032078 7.598089361861923 H 0.0 **** 0.06
10274 H 14.938813849575723 72.18568352556062 8.272672720546808 H 0.0 **** 0.06
10275 H 15.208064201408835 70.72190271257489 9.249221088594368 H 0.0 **** 0.06
10276 C 105.96273157870041 77.11605633941963 55.69315140994936 C 0.0 **** -0.24
10277 H 105.50825458783538 76.93493597447167 56.6666679277109 H 0.0 **** 0.06
10278 H 105.68756437351993 76.31492333231353 55.008550652983956 H 0.0 **** 0.06
10279 H 107.04729107754966 77.14733256240984 55.799475944060745 H 0.0 **** 0.06
10280 H 105.60924806171465 78.07006025044191 55.29958129334062 H 0.0 **** 0.06
10281 C 20.30768688103305 53.95583237447076 87.81332168299997 C 0.0 **** -0.24
10282 H 19.277456335993037 54.31137314547419 87.81694888817864 H 0.0 **** 0.06
10283 H 20.932516806609016 54.647195538478144 88.37949566442646 H 0.0 **** 0.06
10284 H 20.66905954628203 53.896345228488315 86.78739021140811 H 0.0 **** 0.06
10285 H 20.351975954289372 52.967642563220636 88.27216023445825 H 0.0 **** 0.06
10286 C 28.590551815507297 83.36340467176336 28.752684790481823 C 0.0 **** -0.24
10287 H 29.193314851815785 83.10074151474407 29.621832739205473 H 0.0 **** 0.06
10288 H 27.560961316056904 83.53954827852573 29.064936692439346 H 0.0 **** 0.06
10289 H 28.618011339739724 82.54712120005254 28.031784948322695 H 0.0 **** 0.06
10290 H 28.99095511266266 84.26742953947343 28.294038283139997 H 0.0 **** 0.06
10291 C 16.70642671677983 74.14522463202618 23.58855559149771 C 0.0 **** -0.24
10292 H 15.662707588393786 74.18373053807122 23.90138317893218 H 0.0 **** 0.06
10293 H 17.125747818349197 73.17167218579164 23.844842358273496 H 0.0 **** 0.06
10294 H 17.266770817169686 74.92869590915063 24.09762884010763 H 0.0 **** 0.06
10295 H 16.768603182875495 74.29571267524767 22.510909633704415 H 0.0 **** 0.06
10296 C 29.220343229777463 73.143586231178 107.01760327681326 C 0.0 **** -0.24
10297 H 28.389295632756728 73.42027976215047 107.6664776704823 H 0.0 **** 0.06
10298 H 28.899684019789696 73.19299498041369 105.97639008577454 H 0.0 **** 0.06
10299 H 29.540459111931618 72.12792679178284 107.25212868708782 H 0.0 **** 0.06
10300 H 30.05021876349636 73.83220217955471 107.17583113026087 H 0.0 **** 0.06
10301 C 100.41081793882935 71.69327425332452 109.36989559587023 C 0.0 **** -0.24
10302 H 99.50357477876457 72.04616929790353 108.8801443421722 H 0.0 **** 0.06
10303 H 101.19882416630739 71.56648941775617 108.62625570326581 H 0.0 **** 0.06
10304 H 100.21283889141267 70.73878493576808 109.8571940738408 H 0.0 **** 0.06
10305 H 100.72831989086703 72.42331622246496 110.11421246720337 H 0.0 **** 0.06
10306 C 66.74669370420096 56.89204319656902 12.764075147203187 C 0.0 **** -0.24
10307 H 66.56848269233612 57.57030362014955 13.598706826445834 H 0.0 **** 0.06
10308 H 65.99502998017482 56.1031900565412 12.770533885557157 H 0.0 **** 0.06
10309 H 67.73813481268371 56.45051431465461 12.859820152317369 H 0.0 **** 0.06
10310 H 66.68420238143901 57.44562917014972 11.827224149821546 H 0.0 **** 0.06
10311 C 75.65911411211579 111.01919683265504 48.39852579690523 C 0.0 **** -0.24
10312 H 76.04576870808734 110.63055307217991 47.456724008603345 H 0.0 **** 0.06
10313 H 74.65585770616815 110.62829605626075 48.568462733674366 H 0.0 **** 0.06
10314 H 75.6221909620445 112.10776486929711 48.35375176156333 H 0.0 **** 0.06
10315 H 76.31350155957875 110.71110286880071 49.21453843152864 H 0.0 **** 0.06
10316 C 12.836305991509107 54.428123768445985 24.256915832516416 C 0.0 **** -0.24
10317 H 13.882181186904575 54.19867202420584 24.46107598306112 H 0.0 **** 0.06
10318 H 12.204384049978614 53.921221114986984 24.9869718679969 H 0.0 **** 0.06
10319 H 12.578698923323088 54.087210156678445 23.25393930110702 H 0.0 **** 0.06
10320 H 12.680614914364924 55.50446910597701 24.32652448371509 H 0.0 **** 0.06
10321 C 80.77387360314455 9.652577772399539 29.698372889322883 C 0.0 **** -0.24
10322 H 81.77509365185983 10.080649386512007 29.644275514858222 H 0.0 **** 0.06
10323 H 80.51658557629938 9.46185861133597 30.740661001982858 H 0.0 **** 0.06
10324 H 80.74830764267975 8.716930524102949 29.14016237828514 H 0.0 **** 0.06
10325 H 80.057048994382 10.352277502715836 29.269199114162205 H 0.0 **** 0.06
10326 C 44.839563459736105 38.340548759889614 92.45543284600294 C 0.0 **** -0.24
10327 H 43.837227449489696 38.440396645191186 92.03683947269457 H 0.0 **** 0.06
10328 H 45.27427758024638 39.33012115542429 92.59671448710637 H 0.0 **** 0.06
10329 H 45.46279704626531 37.762742288963054 91.77178669747624 H 0.0 **** 0.06
10330 H 44.782126133346644 37.8276934288558 93.41532957537109 H 0.0 **** 0.06
10331 C 98.5395802955353 74.33282233480367 92.41393731052241 C 0.0 **** -0.24
10332 H 98.6328198336422 75.28761840798438 91.89564850581479 H 0.0 **** 0.06
10333 H 97.52009502371342 74.2203803653153 92.78529573000768 H 0.0 **** 0.06
10334 H 99.23728251183559 74.30503455213722 93.2502319839476 H 0.0 **** 0.06
10335 H 98.76654280703204 73.52065109676926 91.72291030715687 H 0.0 **** 0.06
10336 C 52.292105968037184 25.404697555047136 84.07297143348546 C 0.0 **** -0.24
10337 H 52.39014584222598 24.40789937104921 84.5023546236404 H 0.0 **** 0.06
10338 H 53.12235151094826 26.027970405160545 84.40609711424858 H 0.0 **** 0.06
10339 H 51.3511454287768 25.848449367688602 84.39749563244189 H 0.0 **** 0.06
10340 H 52.30317322127165 25.33431555424781 82.985313271152 H 0.0 **** 0.06
10341 C 36.24691801890188 40.827073486126494 62.93649845883846 C 0.0 **** -0.24
10342 H 35.44125272515939 41.52450363498076 62.70610089115905 H 0.0 **** 0.06
10343 H 37.18269486407169 41.376705326100705 63.04392282720954 H 0.0 **** 0.06
10344 H 36.34192778968753 40.102270209839844 62.12869794131683 H 0.0 **** 0.06
10345 H 36.02144501663042 40.307223800591316 63.86754282370646 H 0.0 **** 0.06
10346 C 96.65771656026595 92.623026999677 2.605943329305944 C 0.0 **** -0.24
10347 H 97.70802028033 92.3459658701893 2.6940999595350803 H 0.0 **** 0.06
10348 H 96.37421075097711 92.63950735229889 1.5538144319994984 H 0.0 **** 0.06
10349 H 96.50436199212606 93.61115283008724 3.0399054438218656 H 0.0 **** 0.06
10350 H 96.04495832016676 91.89357706913265 3.1369034091011514 H 0.0 **** 0.06
10351 C 90.92290321276246 65.38564298403782 108.34728339902209 C 0.0 **** -0.24
10352 H 90.71945132986227 64.33817641340073 108.57094504718447 H 0.0 **** 0.06
10353 H 90.98045391489808 65.52144077102113 107.26725919870299 H 0.0 **** 0.06
10354 H 91.87053526658332 65.6757816051344 108.80132466842142 H 0.0 **** 0.06
10355 H 90.12230275140865 66.00501837638902 108.74988659503522 H 0.0 **** 0.06
10356 C 99.54678775941795 2.297236139767591 80.96820813863573 C 0.0 **** -0.24
10357 H 99.04458086738003 1.6400972115399384 80.2576864284442 H 0.0 **** 0.06
10358 H 100.62413286315646 2.1375529195585727 80.9128705339983 H 0.0 **** 0.06
10359 H 99.19727227455263 2.0745195261699507 81.97703057299705 H 0.0 **** 0.06
10360 H 99.3195366320682 3.3352560046013764 80.7254488491235 H 0.0 **** 0.06
10361 C 80.69962602306865 106.01272630602543 42.86555261209026 C 0.0 **** -0.24
10362 H 81.01679112089039 106.94615067647186 43.330623185928694 H 0.0 **** 0.06
10363 H 79.70378864650439 106.13766301916382 42.43995991308144 H 0.0 **** 0.06
10364 H 80.67880429541484 105.22196134848264 43.61568769774666 H 0.0 **** 0.06
10365 H 81.40106438117724 105.74429490376124 42.07521709110795 H 0.0 **** 0.06
10366 C 21.016695670499587 11.179314193348091 103.01840188233786 C 0.0 **** -0.24
10367 H 20.92399720843673 10.514611951188954 102.15936967769244 H 0.0 **** 0.06
10368 H 20.453183163751078 12.094318907281433 102.83092515995537 H 0.0 **** 0.06
10369 H 22.066646400228535 11.42452076926702 103.17479090471687 H 0.0 **** 0.06
10370 H 20.622547928386666 10.683942327388536 103.90555273949144 H 0.0 **** 0.06
10371 C 17.003621697117012 32.9011449865759 78.29310706212294 C 0.0 **** -0.24
10372 H 16.295459481142785 32.326735366319255 78.89117504467075 H 0.0 **** 0.06
10373 H 17.957136957853805 32.96171334929947 78.81937183178485 H 0.0 **** 0.06
10374 H 16.611951203821604 33.904595978876166 78.13167093602507 H 0.0 **** 0.06
10375 H 17.150141966189096 32.40782315990352 77.33199374804695 H 0.0 **** 0.06
10376 C 99.1347620796565 23.42422128276205 58.55276624757399 C 0.0 **** -0.24
10377 H 98.62606824469904 23.652645262200757 57.61557175099884 H 0.0 **** 0.06
10378 H 98.4272968244635 23.50446414118971 59.3786375677632 H 0.0 **** 0.06
10379 H 99.95223399591231 24.13016360430969 58.702654706135895 H 0.0 **** 0.06
10380 H 99.53322099800272 22.410370795813122 58.51148568101424 H 0.0 **** 0.06
10381 C 72.73258453548911 71.42599091516203 39.80692325629915 C 0.0 **** -0.24
10382 H 72.8753630081597 71.12035954980172 38.769579404585635 H 0.0 **** 0.06
10383 H 71.92700520898481 70.8393435247354 40.249859195177 H 0.0 **** 0.06
10384 H 72.472750866892 72.48392182269825 39.84165134118443 H 0.0 **** 0.06
10385 H 73.65317111214159 71.25891111749979 40.36441942466114 H 0.0 **** 0.06
10386 C 92.649448148333 41.521837352564496 26.935036588171982 C 0.0 **** -0.24
10387 H 92.82782485655204 40.6048969360058 26.373236429158823 H 0.0 **** 0.06
10388 H 93.53251052875646 41.761503495738324 27.52917250094211 H 0.0 **** 0.06
10389 H 91.793395716725 41.38270505502278 27.5955377973101 H 0.0 **** 0.06
10390 H 92.44506148554308 42.337787078203 26.24131000887604 H 0.0 **** 0.06
10391 C 112.23034258085498 21.76222920665427 47.91313563659469 C 0.0 **** -0.24
10392 H 112.63824195304527 20.86816444173556 48.38534292439584 H 0.0 **** 0.06
10393 H 111.23166162875772 21.95605003494103 48.30541522116181 H 0.0 **** 0.06
10394 H 112.17504798382485 21.6096953186958 46.834973613791874 H 0.0 **** 0.06
10395 H 112.87723041958714 22.61293190169721 48.126998739440694 H 0.0 **** 0.06
10396 C 57.62967451270223 10.978117214077486 81.99589502410652 C 0.0 **** -0.24
10397 H 57.97479841838028 10.99337109029392 80.96235878051914 H 0.0 **** 0.06
10398 H 57.12629575907752 10.031732265172707 82.19624923420548 H 0.0 **** 0.06
10399 H 56.93454672604689 11.80144011873358 82.15888311477215 H 0.0 **** 0.06
10400 H 58.48296962004495 11.08543254409284 82.6652232265572 H 0.0 **** 0.06
10401 C 59.647692114555525 12.870768286297555 40.44234281627183 C 0.0 **** -0.24
10402 H 59.30859388229169 13.526781859524448 39.640564807562384 H 0.0 **** 0.06
10403 H 59.06918368583041 11.946686715458203 40.42393940922301 H 0.0 **** 0.06
10404 H 59.50706969429723 13.368402221113492 41.40218562951753 H 0.0 **** 0.06
10405 H 60.70347410867396 12.642542293866207 40.302215837018764 H 0.0 **** 0.06
10406 C 90.18330542046698 62.59250425576886 65.2212913219197 C 0.0 **** -0.24
10407 H 91.17450066441324 63.04369165768048 65.28491850928248 H 0.0 **** 0.06
10408 H 89.62460306481853 62.8161394525149 66.1298860301078 H 0.0 **** 0.06
10409 H 90.28265409744125 61.51282320917164 65.11104139249215 H 0.0 **** 0.06
10410 H 89.65478040880328 62.999091950771344 64.35942409780893 H 0.0 **** 0.06
10411 C 9.78132158122213 6.251704682278813 16.799051968028095 C 0.0 **** -0.24
10412 H 10.813857611325489 5.904380923256113 16.771777273529267 H 0.0 **** 0.06
10413 H 9.741234824868684 7.239237306179021 17.260686956208787 H 0.0 **** 0.06
10414 H 9.1787019672023 5.554461765307337 17.38131420962668 H 0.0 **** 0.06
10415 H 9.390336522914879 6.309495341219375 15.782733921917071 H 0.0 **** 0.06
10416 C 75.22975009009451 45.808577923666434 53.19416957191942 C 0.0 **** -0.24
10417 H 74.92263761766475 46.41710380879462 54.04505181735669 H 0.0 **** 0.06
10418 H 74.34784577763136 45.386218349204626 52.71336449849417 H 0.0 **** 0.06
10419 H 75.8771782168954 45.00247224496121 53.53905627002928 H 0.0 **** 0.06
10420 H 75.77104404862865 46.43038457138343 52.480400148276715 H 0.0 **** 0.06
10421 C 55.26727956461973 34.25642604509135 33.95406635399502 C 0.0 **** -0.24
10422 H 55.83822512148364 33.59897131613077 34.60994123298815 H 0.0 **** 0.06
10423 H 55.46900698875991 35.29541976231435 34.21592801533302 H 0.0 **** 0.06
10424 H 54.20313186023728 34.051577987985645 34.07230484473041 H 0.0 **** 0.06
10425 H 55.55954051733843 34.079087777513685 32.919072603943164 H 0.0 **** 0.06
10426 C 102.68503340373485 80.00936149064606 44.38833466585328 C 0.0 **** -0.24
10427 H 102.25914692076756 80.89125128928333 44.86665721913795 H 0.0 **** 0.06
10428 H 103.32304815439221 79.48353461912484 45.09766927658438 H 0.0 **** 0.06
10429 H 103.27509689242257 80.31520345748945 43.524442221212446 H 0.0 **** 0.06
10430 H 101.88107237829786 79.34873979235994 44.06346385597507 H 0.0 **** 0.06
10431 C 2.410512591433246 84.36484406068485 18.57878145224342 C 0.0 **** -0.24
10432 H 1.5742147777865512 84.78946244851429 18.02400803422435 H 0.0 **** 0.06
10433 H 2.9880388496461023 83.71235337794278 17.923254358663712 H 0.0 **** 0.06
10434 H 2.0316392931692633 83.78955412890963 19.423037255196363 H 0.0 **** 0.06
10435 H 3.0494884012581736 85.16890532152632 18.945474592496993 H 0.0 **** 0.06
10436 C 1.9733879044047455 64.5893799146744 108.65541907949016 C 0.0 **** -0.24
10437 H 1.557291370555788 63.61180827420051 108.41056241125808 H 0.0 **** 0.06
10438 H 2.6131837338419643 64.92585747926626 107.83934030896361 H 0.0 **** 0.06
10439 H 2.559551287815651 64.51448059040715 109.57120505623374 H 0.0 **** 0.06
10440 H 1.1623860481081465 65.30350437589232 108.80011069221267 H 0.0 **** 0.06
10441 C 60.975870110993014 8.429756867406768 105.6451960450137 C 0.0 **** -0.24
10442 H 60.359746854709925 8.45951928168415 104.74705537259138 H 0.0 **** 0.06
10443 H 60.73557170073687 9.283540270004897 106.27908955997995 H 0.0 **** 0.06
10444 H 62.02838036650596 8.470455913099425 105.36532085811075 H 0.0 **** 0.06
10445 H 60.78064139876426 7.505994622786895 106.1894849685525 H 0.0 **** 0.06
10446 C 91.14559638862579 84.71482568099381 62.717988762146256 C 0.0 **** -0.24
10447 H 90.96458218232618 83.75995223669042 63.2110921279582 H 0.0 **** 0.06
10448 H 92.2038656706386 84.80226572045459 62.472834255750605 H 0.0 **** 0.06
10449 H 90.85723516615704 85.52807586728011 63.38304008115475 H 0.0 **** 0.06
10450 H 90.55513272826727 84.76718417942894 61.80249724215765 H 0.0 **** 0.06
10451 C 80.22975296157682 73.75998592071613 51.08710005454128 C 0.0 **** -0.24
10452 H 79.60359184874119 73.36159280994178 51.8850258308352 H 0.0 **** 0.06
10453 H 80.64158787127272 72.9367428997005 50.50342949688989 H 0.0 **** 0.06
10454 H 81.04244118176328 74.34207590655782 51.52022177625101 H 0.0 **** 0.06
10455 H 79.62859421430198 74.39911750793775 50.43964007875398 H 0.0 **** 0.06
10456 C 108.4303712614772 10.920144775109407 62.740387252344966 C 0.0 **** -0.24
10457 H 107.83243322429999 11.76454386334737 63.080852492581904 H 0.0 **** 0.06
10458 H 108.27270442137865 10.071024792854203 63.406037206327916 H 0.0 **** 0.06
10459 H 109.48560717708864 11.19617881678954 62.746700239959544 H 0.0 **** 0.06
10460 H 108.13260186925729 10.648275994393941 61.727483915223324 H 0.0 **** 0.06
10461 C 102.01358571039387 111.77897291168776 6.335926888813447 C 0.0 **** -0.24
10462 H 102.62013884269078 110.9791466626281 5.911371066932759 H 0.0 **** 0.06
10463 H 100.97227586199122 111.45650081267394 6.386622968335757 H 0.0 **** 0.06
10464 H 102.08972598120704 112.66549245066048 5.7075925303495865 H 0.0 **** 0.06
10465 H 102.37054737330888 112.01124433609235 7.339521315375691 H 0.0 **** 0.06
10466 C 66.13676383474862 6.783566061248024 98.63318290331938 C 0.0 **** -0.24
10467 H 66.58394556272202 7.7732292043708355 98.54051819206487 H 0.0 **** 0.06
10468 H 65.16371820793688 6.868377218975155 99.11734473945828 H 0.0 **** 0.06
10469 H 66.78642195481342 6.144950144389327 99.23163208513165 H 0.0 **** 0.06
10470 H 66.0122250973794 6.347634573065079 97.6411293151728 H 0.0 **** 0.06
10471 C 27.329456149409793 70.61599059486775 36.93804902498691 C 0.0 **** -0.24
10472 H 28.02692753827256 70.55063885733358 36.10322977703865 H 0.0 **** 0.06
10473 H 26.955419514154926 71.63624752927615 37.01980928128367 H 0.0 **** 0.06
10474 H 27.8422583399541 70.34159695804021 37.86064076060916 H 0.0 **** 0.06
10475 H 26.496042390707373 69.93505039269701 36.7694362812112 H 0.0 **** 0.06
10476 C 109.14725601818554 50.052892685594 69.5192149348178 C 0.0 **** -0.24
10477 H 109.57605473859155 51.019405352611614 69.25415961786871 H 0.0 **** 0.06
10478 H 109.9442810048788 49.31391557468547 69.60687588341926 H 0.0 **** 0.06
10479 H 108.44685949843353 49.7421738077542 68.74374868574318 H 0.0 **** 0.06
10480 H 108.622143558012 50.13798488776732 70.4709542111325 H 0.0 **** 0.06
10481 C 5.822908895561312 36.34407552578085 62.64834557813747 C 0.0 **** -0.24
10482 H 5.6052053794023635 35.9377647086348 63.635694070512734 H 0.0 **** 0.06
10483 H 6.2703797347910495 37.33309761053147 62.75275640774773 H 0.0 **** 0.06
10484 H 4.898145364381151 36.42152341467835 62.07642719631064 H 0.0 **** 0.06
10485 H 6.517003303035651 35.68378738325413 62.12891716063668 H 0.0 **** 0.06
10486 C 72.66375337049749 27.409695667411086 104.24585233877877 C 0.0 **** -0.24
10487 H 72.56201373448141 28.372606535098157 103.74710491305623 H 0.0 **** 0.06
10488 H 71.69107238818754 27.090266021146974 104.62095477756478 H 0.0 **** 0.06
10489 H 73.3614128401017 27.503913412832205 105.07798914728102 H 0.0 **** 0.06
10490 H 73.04000430002327 26.670715425797596 103.53767376597074 H 0.0 **** 0.06
10491 C 107.29791982797224 1.1768796396656285 59.54763572777932 C 0.0 **** -0.24
10492 H 106.8862849826198 2.053670320738206 60.04655074030882 H 0.0 **** 0.06
10493 H 107.45929962044652 1.4014166424652217 58.492748932173356 H 0.0 **** 0.06
10494 H 106.59838706860297 0.3443413900757264 59.63875390632546 H 0.0 **** 0.06
10495 H 108.24647395804536 0.9060117393116798 60.01209140339142 H 0.0 **** 0.06
10496 C 106.20219408060584 52.36745392684162 92.49172389140142 C 0.0 **** -0.24
10497 H 106.17635490516304 51.28956872914108 92.32882121938081 H 0.0 **** 0.06
10498 H 107.05763137808647 52.618732965593836 93.11947090594114 H 0.0 **** 0.06
10499 H 105.28339121852753 52.68070722473354 92.9866107600302 H 0.0 **** 0.06
10500 H 106.29145819142488 52.87791412958376 91.5327860991211 H 0.0 **** 0.06
10501 C 12.366021878401313 93.9074127625683 13.190919588792493 C 0.0 **** -0.24
10502 H 12.534376707784446 94.07868430297088 14.25380531215071 H 0.0 **** 0.06
10503 H 11.990643319645514 94.822750823141 12.730618920173516 H 0.0 **** 0.06
10504 H 11.635252899623964 93.1093289260462 13.06274689750462 H 0.0 **** 0.06
10505 H 13.304474011562888 93.6199553490639 12.715856150574787 H 0.0 **** 0.06
10506 C 38.90819993758299 12.389080679020168 83.0040478121052 C 0.0 **** -0.24
10507 H 38.06778977026825 12.366577312506607 82.31187975916819 H 0.0 **** 0.06
10508 H 38.706970026911804 13.109959081288508 83.79646073506433 H 0.0 **** 0.06
10509 H 39.81207943368109 12.681031982515421 82.4688555900992 H 0.0 **** 0.06
10510 H 39.04816416968511 11.399118276781763 83.43888672423654 H 0.0 **** 0.06
10511 C 104.22315503496694 63.40731706038099 96.1700848600845 C 0.0 **** -0.24
10512 H 104.90487237335401 62.586559091688 95.94837517374228 H 0.0 **** 0.06
10513 H 103.36917591301179 63.36198527499397 95.4952856321321 H 0.0 **** 0.06
10514 H 104.7423218398757 64.35613277964961 96.0372281272152 H 0.0 **** 0.06
10515 H 103.87769524020874 63.32275938969326 97.20104945342595 H 0.0 **** 0.06
10516 C 97.60953275577725 80.1705474148568 49.928025221002144 C 0.0 **** -0.24
10517 H 97.30925510462515 80.69621481029583 50.83546977357764 H 0.0 **** 0.06
10518 H 97.72151967876346 80.88666668539068 49.113980071480796 H 0.0 **** 0.06
10519 H 96.8483861063865 79.43688284914012 49.66557259416504 H 0.0 **** 0.06
10520 H 98.5596065467542 79.66353010236716 50.10045115280053 H 0.0 **** 0.06
10521 C 54.73937614547674 6.057690761952642 5.366945095446937 C 0.0 **** -0.24
10522 H 55.01351120716589 6.671750468745756 6.225260935232086 H 0.0 **** 0.06
10523 H 55.101449561589334 6.529733064963239 4.45268069631166 H 0.0 **** 0.06
10524 H 53.65455388086053 5.962379841400605 5.321284751809543 H 0.0 **** 0.06
10525 H 55.18734565018963 5.069995448967177 5.4685944597924845 H 0.0 **** 0.06
10526 C 64.95727548403684 87.6403395837437 63.76242069716244 C 0.0 **** -0.24
10527 H 64.23408145404036 88.08164477965414 63.076741108589204 H 0.0 **** 0.06
10528 H 64.43726212044615 87.25691191558184 64.64048147681649 H 0.0 **** 0.06
10529 H 65.67760742597446 88.398409361147 64.06783422546937 H 0.0 **** 0.06
10530 H 65.47834816530977 86.82328068546374 63.263395238148576 H 0.0 **** 0.06
10531 C 3.4850301456993673 39.651286194663896 89.77644855600275 C 0.0 **** -0.24
10532 H 3.567920285493063 38.63505520406301 89.39216722565007 H 0.0 **** 0.06
10533 H 4.038599464855796 39.732095118062034 90.71240441308285 H 0.0 **** 0.06
10534 H 2.4357767138448896 39.88774603220037 89.95380520786438 H 0.0 **** 0.06
10535 H 3.8976174317535364 40.34916622413601 89.048753900312 H 0.0 **** 0.06
10536 C 54.302873349514556 22.121679984998764 98.09611306305726 C 0.0 **** -0.24
10537 H 53.5468982840338 21.960376127121208 98.86447960597184 H 0.0 **** 0.06
10538 H 54.67483864759194 21.1591558059406 97.74543173529639 H 0.0 **** 0.06
10539 H 55.12738828933905 22.69977707084624 98.51400813902615 H 0.0 **** 0.06
10540 H 53.86226176857201 22.66784825336086 97.26220537499535 H 0.0 **** 0.06
10541 C 70.63004585472555 48.4891393325104 41.311475862209534 C 0.0 **** -0.24
10542 H 70.09533959037728 47.99740736880238 42.12327830051146 H 0.0 **** 0.06
10543 H 70.09385829331075 48.33144792063037 40.37520840257599 H 0.0 **** 0.06
10544 H 71.63317575300059 48.07027974857119 41.230115805228195 H 0.0 **** 0.06
10545 H 70.69847119587556 49.55797972728182 41.516182052072054 H 0.0 **** 0.06
10546 C 0.18512112499276157 7.893108120946749 26.865568554921197 C 0.0 **** -0.24
10547 H -0.2722940364185149 7.827932217901093 25.878823498174086 H 0.0 **** 0.06
10548 H -0.2727611856703476 8.70892526679836 27.425611059438324 H 0.0 **** 0.06
10549 H 1.2536676487768545 8.079390964068693 26.759528949775927 H 0.0 **** 0.06
10550 H 0.030868630370434857 6.955386561707428 27.40014303930252 H 0.0 **** 0.06
10551 C 110.57880553256139 26.872325650674938 44.49421567251693 C 0.0 **** -0.24
10552 H 109.70661366742694 26.46738981843876 43.98098793417074 H 0.0 **** 0.06
10553 H 110.90168290547022 27.786267127078958 43.99519503622167 H 0.0 **** 0.06
10554 H 111.38567941208095 26.14037029620772 44.472119397553286 H 0.0 **** 0.06
10555 H 110.31909896273497 27.095342138624886 45.529181153447894 H 0.0 **** 0.06
10556 C 9.661150416769601 30.2198601602027 40.48639148131255 C 0.0 **** -0.24
10557 H 9.804898323840291 29.154867764856192 40.67116209148301 H 0.0 **** 0.06
10558 H 9.202355770043141 30.359444770329787 39.50757178581571 H 0.0 **** 0.06
10559 H 10.625740230213978 30.72583394954205 40.5121858530747 H 0.0 **** 0.06
10560 H 9.010690625560642 30.637140855733776 41.25536956692574 H 0.0 **** 0.06
10561 C 57.13528477614213 74.54163611509532 22.541280388475712 C 0.0 **** -0.24
10562 H 56.31780703714813 75.05663529863881 23.045282713300708 H 0.0 **** 0.06
10563 H 58.08640439502103 74.96978161872246 22.860779052907958 H 0.0 **** 0.06
10564 H 57.02819777896476 74.65746808509388 21.4630352006167 H 0.0 **** 0.06
10565 H 57.10998319699207 73.48221984899965 22.79651047557536 H 0.0 **** 0.06
10566 C 81.44268295431297 91.69160719630304 47.73563654447807 C 0.0 **** -0.24
10567 H 82.01295023061758 91.66301937020049 48.663288565444574 H 0.0 **** 0.06
10568 H 81.82169403741469 92.49192951654922 47.100051637438526 H 0.0 **** 0.06
10569 H 80.3912375327298 91.87321612615827 47.960716914286024 H 0.0 **** 0.06
10570 H 81.54282855266715 90.7373732284043 47.216722405891645 H 0.0 **** 0.06
10571 C 3.470100458252155 99.88126369495254 75.22078282504978 C 0.0 **** -0.24
10572 H 2.500543909757532 99.72160566593791 74.75011761132922 H 0.0 **** 0.06
10573 H 3.877606002838725 98.9243241472071 75.5464364879405 H 0.0 **** 0.06
10574 H 3.352026482391981 100.53817933884406 76.08303905824539 H 0.0 **** 0.06
10575 H 4.150225438020318 100.34094562782113 74.50353814268385 H 0.0 **** 0.06
10576 C 98.25357236707455 94.63074876860833 90.07957872179077 C 0.0 **** -0.24
10577 H 97.61182604214196 94.49134204385217 89.20920360137629 H 0.0 **** 0.06
10578 H 98.35344709600173 95.6952020163699 90.29155207848348 H 0.0 **** 0.06
10579 H 99.23686177138751 94.20624007726025 89.87598419456484 H 0.0 **** 0.06
10580 H 97.81201965925095 94.12806843363634 90.940395257675 H 0.0 **** 0.06
10581 C 95.96305529821865 13.294064369007856 67.3905266527195 C 0.0 **** -0.24
10582 H 95.25755824974655 14.04202810824927 67.75180013075277 H 0.0 **** 0.06
10583 H 96.17505596248506 13.473321022196785 66.33608689306777 H 0.0 **** 0.06
10584 H 95.53109067539938 12.300551784135365 67.51042533613702 H 0.0 **** 0.06
10585 H 96.8875451427507 13.360140510178013 67.96369314709477 H 0.0 **** 0.06
10586 C 15.693969327085554 37.398023412768595 69.0778358071924 C 0.0 **** -0.24
10587 H 15.344931762988281 36.47286210081069 69.53775077951852 H 0.0 **** 0.06
10588 H 16.197248299470715 38.008395104141385 69.82805517268218 H 0.0 **** 0.06
10589 H 14.842491666927458 37.9460052756279 68.67416010760766 H 0.0 **** 0.06
10590 H 16.38941043052145 37.16289531969835 68.27311799951869 H 0.0 **** 0.06
10591 C 70.61186028911408 107.75952246288898 18.10020679216727 C 0.0 **** -0.24
10592 H 70.59071514179487 108.13341586083709 19.12468573081283 H 0.0 **** 0.06
10593 H 70.57517382232157 106.6704636538069 18.109765467233743 H 0.0 **** 0.06
10594 H 71.52940802177142 108.08960276265486 17.61236502957098 H 0.0 **** 0.06
10595 H 69.75050412020721 108.14715561647972 17.554915530948875 H 0.0 **** 0.06
10596 C 97.87912281716217 98.91296538225751 6.9941225762338775 C 0.0 **** -0.24
10597 H 97.37022213556838 99.43346517359521 7.805302853648328 H 0.0 **** 0.06
10598 H 97.18774074742447 98.21554460156273 6.519452617685232 H 0.0 **** 0.06
10599 H 98.73198842720294 98.363669091824 7.394754966181097 H 0.0 **** 0.06
10600 H 98.22689300406944 99.63742146223387 6.25831171486962 H 0.0 **** 0.06
10601 C 9.818425474804286 46.39391415862309 89.69337634469792 C 0.0 **** -0.24
10602 H 9.699473060986406 47.441691080084155 89.97142364917386 H 0.0 **** 0.06
10603 H 10.878518574061047 46.172659259566004 89.5583524815716 H 0.0 **** 0.06
10604 H 9.285467781673873 46.20341213194263 88.76183919325337 H 0.0 **** 0.06
10605 H 9.412506817715752 45.76051137621775 90.48173623300022 H 0.0 **** 0.06
10606 C 106.91611617517022 62.22512938950896 105.09378515306548 C 0.0 **** -0.24
10607 H 105.97244374871883 62.542333808468534 104.64949907192516 H 0.0 **** 0.06
10608 H 106.78605336706329 62.096035582934455 106.16838780471346 H 0.0 **** 0.06
10609 H 107.6775433692524 62.98301739384235 104.9081300405145 H 0.0 **** 0.06
10610 H 107.22808723433357 61.28004822405952 104.64891207401405 H 0.0 **** 0.06
10611 C 91.80654951745859 0.45001675422747667 9.917256788832816 C 0.0 **** -0.24
10612 H 92.54815466436716 1.2451372908562917 9.837047326522963 H 0.0 **** 0.06
10613 H 91.06218966844756 0.5683780063188806 9.129803029937676 H 0.0 **** 0.06
10614 H 91.31972709984421 0.5038035912470491 10.890763990335387 H 0.0 **** 0.06
10615 H 92.29814335183494 -0.5165243338392429 9.810227949362996 H 0.0 **** 0.06
10616 C 12.265287566232445 106.63238509069087 32.68236822639042 C 0.0 **** -0.24
10617 H 11.616898494243259 106.38764527433273 33.52333873197438 H 0.0 **** 0.06
10618 H 11.706397723234915 107.21955155761894 31.952468114159643 H 0.0 **** 0.06
10619 H 12.617440588347918 105.71296277739464 32.215283421090874 H 0.0 **** 0.06
10620 H 13.118625330628504 107.21001310653577 33.036832455627376 H 0.0 **** 0.06
10621 C 51.75989256339808 34.86921868677808 7.499228841201017 C 0.0 **** -0.24
10622 H 51.247269997596284 34.516038679916484 6.603805787312467 H 0.0 **** 0.06
10623 H 51.237549409728146 35.74072993130493 7.895317512914431 H 0.0 **** 0.06
10624 H 52.784528017386165 35.1412658424239 7.24795834933272 H 0.0 **** 0.06
10625 H 51.766976755755145 34.07738032147635 8.248679468661209 H 0.0 **** 0.06
10626 C 11.129035178060462 95.3477624301753 94.16780999156356 C 0.0 **** -0.24
10627 H 10.906963271497375 96.3992406999719 93.98147965733219 H 0.0 **** 0.06
10628 H 10.242548552703283 94.85502450353633 94.56816887521475 H 0.0 **** 0.06
10629 H 11.94389013342277 95.27043054991623 94.88751726741992 H 0.0 **** 0.06
10630 H 11.421797397153568 94.86739165623516 93.2338813938903 H 0.0 **** 0.06
10631 C 47.56180130050905 80.49982909892225 56.521074781554546 C 0.0 **** -0.24
10632 H 47.02472564316622 81.40567984496039 56.24097208929868 H 0.0 **** 0.06
10633 H 48.557907867821235 80.76349454269803 56.87712064025277 H 0.0 **** 0.06
10634 H 47.64738010088031 79.8448415789276 55.65392945522544 H 0.0 **** 0.06
10635 H 47.017521585662855 79.98519134129407 57.31364782300855 H 0.0 **** 0.06
10636 C 55.44668180989641 66.29138508443376 19.909702022785154 C 0.0 **** -0.24
10637 H 55.53891122242685 65.42645284780735 19.25241640632177 H 0.0 **** 0.06
10638 H 56.33404762197003 66.91629385766049 19.81210953541634 H 0.0 **** 0.06
10639 H 55.35115583884389 65.95376400269063 20.94172440059924 H 0.0 **** 0.06
10640 H 54.56420105989613 66.86625733576443 19.63166799184455 H 0.0 **** 0.06
10641 C 47.966087750378705 93.0836913772273 44.30543700563239 C 0.0 **** -0.24
10642 H 47.43831920760738 92.27585948456425 44.81216807548063 H 0.0 **** 0.06
10643 H 48.67583247100288 93.54246274879796 44.993925681535295 H 0.0 **** 0.06
10644 H 47.24794574096725 93.83153105159673 43.970353108033315 H 0.0 **** 0.06
10645 H 48.50224213139137 92.68360726472451 43.444756121929565 H 0.0 **** 0.06
10646 C 55.80542316614515 0.15689916611933974 98.77977700471052 C 0.0 **** -0.24
10647 H 55.01543394825467 -0.3420924618090737 98.21866581225123 H 0.0 **** 0.06
10648 H 56.75215056614343 -0.35304214554922453 98.60501027761626 H 0.0 **** 0.06
10649 H 55.5677773789256 0.1295103534425852 99.84308820492384 H 0.0 **** 0.06
10650 H 55.8841231615653 1.193052032627894 98.45203032228693 H 0.0 **** 0.06
10651 C 20.756943660911872 23.227153975863928 93.6314324819954 C 0.0 **** -0.24
10652 H 19.923925104559743 22.739970777345132 94.13781275616336 H 0.0 **** 0.06
10653 H 21.59198377549302 22.53083074275273 93.55410620088196 H 0.0 **** 0.06
10654 H 21.064473705127398 24.10404178052034 94.20051630510645 H 0.0 **** 0.06
10655 H 20.444669095904914 23.533124655312413 92.63221478185343 H 0.0 **** 0.06
10656 C 95.3576334510422 57.60081767170263 57.818325707944325 C 0.0 **** -0.24
10657 H 95.39702339746208 58.6849982100118 57.70882030834906 H 0.0 **** 0.06
10658 H 96.22738989817057 57.2611461035078 58.38092623536261 H 0.0 **** 0.06
10659 H 95.35889011361695 57.13574715425082 56.832059883781284 H 0.0 **** 0.06
10660 H 94.44879582535495 57.32165919127354 58.3502834450951 H 0.0 **** 0.06
10661 C 77.3794526516136 63.00596419940291 72.73742522241801 C 0.0 **** -0.24
10662 H 77.23217974303597 62.289855578096706 71.92960936228758 H 0.0 **** 0.06
10663 H 77.96396404241636 62.54158747088047 73.5324058166994 H 0.0 **** 0.06
10664 H 76.41018982230486 63.313200592151304 73.13101484966595 H 0.0 **** 0.06
10665 H 77.9107740540066 63.878997946219954 72.35734880646572 H 0.0 **** 0.06
10666 C 68.90209756227597 56.42192183074036 102.84457132931723 C 0.0 **** -0.24
10667 H 68.95969666027946 57.285768400698714 102.1827822362018 H 0.0 **** 0.06
10668 H 68.47630767258948 55.576659541516506 102.30197005777248 H 0.0 **** 0.06
10669 H 68.2699043077742 56.66044282416999 103.69995301141398 H 0.0 **** 0.06
10670 H 69.902579108851 56.16324907836872 103.19198822377848 H 0.0 **** 0.06
10671 C 10.612895155454055 30.400071115277967 74.94840186085653 C 0.0 **** -0.24
10672 H 9.826212189091564 29.76992982667423 75.36461372718998 H 0.0 **** 0.06
10673 H 11.429516589458444 30.483209397841733 75.66490363726052 H 0.0 **** 0.06
10674 H 10.211235996350155 31.39097359061782 74.73759017037952 H 0.0 **** 0.06
10675 H 10.982644490145361 29.95517484264394 74.0244699711321 H 0.0 **** 0.06
10676 C 11.2591896305712 108.12806040790139 106.68219127062866 C 0.0 **** -0.24
10677 H 10.363156606830046 108.702051321547 106.44600566064736 H 0.0 **** 0.06
10678 H 11.375776863359462 107.32312638543081 105.95576502596248 H 0.0 **** 0.06
10679 H 11.166406239358423 107.70456882803344 107.68124502197372 H 0.0 **** 0.06
10680 H 12.13015050631816 108.78127512305306 106.64331964680662 H 0.0 **** 0.06
10681 C 34.73268019229977 108.22692649443846 9.117805990156569 C 0.0 **** -0.24
10682 H 34.61011003326689 107.3046491440239 9.686754585258626 H 0.0 **** 0.06
10683 H 34.24478481488751 108.12295313634684 8.148308661902988 H 0.0 **** 0.06
10684 H 35.79470604327565 108.42522404867634 8.970797136864931 H 0.0 **** 0.06
10685 H 34.28044731096281 109.05414713302687 9.665469082017282 H 0.0 **** 0.06
10686 C 32.44933641459214 24.321382977446984 8.063512364601706 C 0.0 **** -0.24
10687 H 32.62199451645881 25.216064566691028 8.66247770231331 H 0.0 **** 0.06
10688 H 31.386665582377518 24.231457786102624 7.84267432468215 H 0.0 **** 0.06
10689 H 32.781302594903394 23.443487516982632 8.618315428487222 H 0.0 **** 0.06
10690 H 33.0108095889245 24.39536085696851 7.131829170187586 H 0.0 **** 0.06
10691 C 94.55493656732037 79.44709076764349 36.95698853826303 C 0.0 **** -0.24
10692 H 94.5074450527706 78.36873080291036 37.113375288301256 H 0.0 **** 0.06
10693 H 94.45832230380958 79.9572302148892 37.91519091612088 H 0.0 **** 0.06
10694 H 93.7438786343304 79.75417762050034 36.29726735388232 H 0.0 **** 0.06
10695 H 95.51105663518985 79.70603379191601 36.501585041950364 H 0.0 **** 0.06
10696 C 53.78027112483636 32.48796593514085 61.39036703533924 C 0.0 **** -0.24
10697 H 53.85716262143086 33.4354784282338 60.85607102831494 H 0.0 **** 0.06
10698 H 54.730669188108266 32.26796091226903 61.87607236848572 H 0.0 **** 0.06
10699 H 53.540111331325704 31.692010430584027 60.685101463031 H 0.0 **** 0.06
10700 H 52.994325573420895 32.557613376895176 62.14154753414226 H 0.0 **** 0.06
10701 C 107.01856210243575 5.690462147370965 43.79237228342302 C 0.0 **** -0.24
10702 H 108.09447998313674 5.620247375469177 43.63743067938492 H 0.0 **** 0.06
10703 H 106.5250822015026 5.877771068331583 42.83806289234869 H 0.0 **** 0.06
10704 H 106.8032395746467 6.508878087064261 44.4794130053173 H 0.0 **** 0.06
10705 H 106.65052355772659 4.7551827560134825 44.21489034755632 H 0.0 **** 0.06
10706 C 67.46525038651413 76.83303277369549 66.70965697464192 C 0.0 **** -0.24
10707 H 67.14924697198626 76.45872358152155 65.73544040997604 H 0.0 **** 0.06
10708 H 68.05984560182662 77.73687220828651 66.57640832353047 H 0.0 **** 0.06
10709 H 68.06483441808757 76.0733418782217 67.21221163230842 H 0.0 **** 0.06
10710 H 66.58664150765355 77.06047143253923 67.3130171181408 H 0.0 **** 0.06
10711 C 46.33140642016855 54.17093937594074 73.7124190421934 C 0.0 **** -0.24
10712 H 45.36498415209786 54.63477303003113 73.90974802630342 H 0.0 **** 0.06
10713 H 46.42544379239388 53.96915344427017 72.64451459579956 H 0.0 **** 0.06
10714 H 46.403678490995276 53.23563775403387 74.2663079660419 H 0.0 **** 0.06
10715 H 47.12772974294677 54.843260907843266 74.02777466825128 H 0.0 **** 0.06
10716 C 31.89138282073992 108.97341424304722 57.30763572160819 C 0.0 **** -0.24
10717 H 32.421730036760835 108.10344042738309 57.696793611490136 H 0.0 **** 0.06
10718 H 32.555520100321274 109.83725982981677 57.31689993059305 H 0.0 **** 0.06
10719 H 31.020754587480724 109.17573614824525 57.93156658504452 H 0.0 **** 0.06
10720 H 31.568055781748797 108.77352245600034 56.28549416816372 H 0.0 **** 0.06
10721 C 3.888645481974976 83.85464637707926 42.40338600983602 C 0.0 **** -0.24
10722 H 4.422565749758206 83.88753488253533 43.35322594240935 H 0.0 **** 0.06
10723 H 4.4346862134174785 83.22487669013111 41.70107977666866 H 0.0 **** 0.06
10724 H 3.804739982572073 84.86319654329327 41.99898175729796 H 0.0 **** 0.06
10725 H 2.891131612109433 83.44300025341468 42.56195153134807 H 0.0 **** 0.06
10726 C 17.066279842872234 102.44327003467399 107.44272755052127 C 0.0 **** -0.24
10727 H 16.925947815530407 101.60577612769012 106.76004811403854 H 0.0 **** 0.06
10728 H 16.741918076882854 103.36481564104767 106.95973219924156 H 0.0 **** 0.06
10729 H 18.121104603680635 102.52281824506753 107.70757893179234 H 0.0 **** 0.06
10730 H 16.477406957692295 102.27880269715743 108.34546541213172 H 0.0 **** 0.06
10731 C 29.916748921147786 39.448106236638814 91.59933943148681 C 0.0 **** -0.24
10732 H 30.940467665722366 39.07971491357154 91.65884662965394 H 0.0 **** 0.06
10733 H 29.87883742835882 40.31214352018186 90.93589110312556 H 0.0 **** 0.06
10734 H 29.576872028517982 39.73698161775838 92.5936412334149 H 0.0 **** 0.06
10735 H 29.270205033327898 38.66122935265836 91.20925324653308 H 0.0 **** 0.06
10736 C 52.8584649634706 69.1767894495348 108.3195208136537 C 0.0 **** -0.24
10737 H 53.187201426618266 68.50060242244359 109.10801543666241 H 0.0 **** 0.06
10738 H 51.881903370452406 68.8605284955895 107.95302545400489 H 0.0 **** 0.06
10739 H 53.57780615567544 69.15604919776956 107.50058766296314 H 0.0 **** 0.06
10740 H 52.78746980009039 70.18985104033425 108.715145984235 H 0.0 **** 0.06
10741 C 100.07906077598324 97.94568140203427 43.940565064624906 C 0.0 **** -0.24
10742 H 99.29099552060399 97.25312919430445 44.237263592988654 H 0.0 **** 0.06
10743 H 100.28029837803763 97.83121900568295 42.875210098383974 H 0.0 **** 0.06
10744 H 100.98496666891677 97.73082846098316 44.507506088810345 H 0.0 **** 0.06
10745 H 99.75787944786521 98.96830073818728 44.14217042105096 H 0.0 **** 0.06
10746 C 12.997655333739118 48.3730519672859 7.021950690153744 C 0.0 **** -0.24
10747 H 13.452011120081323 47.51744336045448 7.521202231424255 H 0.0 **** 0.06
10748 H 13.62746940686634 48.68376155667795 6.187853441222359 H 0.0 **** 0.06
10749 H 12.900881652926074 49.19669893479971 7.730194284629945 H 0.0 **** 0.06
10750 H 12.011713155323946 48.09573696861321 6.6505106050055645 H 0.0 **** 0.06
10751 C 30.495198243557468 98.81840176507797 73.42970485605446 C 0.0 **** -0.24
10752 H 30.106895227833775 99.38099813114692 74.2785443406922 H 0.0 **** 0.06
10753 H 30.144360234076913 99.27092575034277 72.50228417680464 H 0.0 **** 0.06
10754 H 30.145423419575565 97.78757184359063 73.48767594488496 H 0.0 **** 0.06
10755 H 31.585218713576012 98.83340472890976 73.4521262608009 H 0.0 **** 0.06
10756 C 64.92248718571813 80.47030483532154 75.60261115494023 C 0.0 **** -0.24
10757 H 63.92599566993747 80.91167366257048 75.61698480011233 H 0.0 **** 0.06
10758 H 64.83835305995612 79.38367964397384 75.59392086702638 H 0.0 **** 0.06
10759 H 65.4717948183847 80.78553382893813 76.48879629431394 H 0.0 **** 0.06
10760 H 65.45333142033994 80.80048799281116 74.70908391223526 H 0.0 **** 0.06
10761 C 109.07889517846615 100.1113816024708 42.548483678171294 C 0.0 **** -0.24
10762 H 108.51088825895769 99.71011188326926 41.709021853355665 H 0.0 **** 0.06
10763 H 109.9542081842229 99.4865460499307 42.72621681636578 H 0.0 **** 0.06
10764 H 108.45224869173886 100.12160246634426 43.43995329101105 H 0.0 **** 0.06
10765 H 109.3981570876073 101.12820571661334 42.318409813592496 H 0.0 **** 0.06
10766 C 34.680322104548694 57.00957074272253 56.050631845771306 C 0.0 **** -0.24
10767 H 33.93646944466418 56.43197522780113 56.59973570739362 H 0.0 **** 0.06
10768 H 34.2996657036139 58.016469747874254 55.87420739214838 H 0.0 **** 0.06
10769 H 34.882925054755304 56.524837811114 55.09548241669171 H 0.0 **** 0.06
10770 H 35.59913609154566 57.06433774545462 56.63312453451812 H 0.0 **** 0.06
10771 C 97.75880732257082 44.16835648786048 103.19412126082457 C 0.0 **** -0.24
10772 H 98.02862034639617 44.4403610444416 104.21457500479394 H 0.0 **** 0.06
10773 H 96.99718491127095 44.855115529783234 102.82387573478437 H 0.0 **** 0.06
10774 H 97.36713390400601 43.15054343997622 103.18187373862128 H 0.0 **** 0.06
10775 H 98.64126871047014 44.22584750730607 102.55739680323924 H 0.0 **** 0.06
10776 C 60.853210859905495 67.9738474972039 66.98958485097864 C 0.0 **** -0.24
10777 H 60.34867894380951 68.29263013887987 67.90234639218895 H 0.0 **** 0.06
10778 H 60.20737110821795 67.28997048046097 66.43755884456874 H 0.0 **** 0.06
10779 H 61.783733878427064 67.46657251583218 67.2475082640996 H 0.0 **** 0.06
10780 H 61.07311084311319 68.84445370141765 66.37335266418512 H 0.0 **** 0.06
10781 C 75.07998605969405 31.304919310971115 32.480735305985974 C 0.0 **** -0.24
10782 H 74.30873240308571 30.90498885822535 33.139807289453586 H 0.0 **** 0.06
10783 H 75.37812598500824 30.53939900762518 31.76381991090787 H 0.0 **** 0.06
10784 H 75.94448024858781 31.60543879623944 33.07340913927624 H 0.0 **** 0.06
10785 H 74.68721196294621 32.16996829048904 31.94611471289241 H 0.0 **** 0.06
10786 C 21.071003187644713 63.95308406763536 103.02985166791956 C 0.0 **** -0.24
10787 H 20.70095248030518 64.17779378462137 102.03004551332114 H 0.0 **** 0.06
10788 H 21.48621664671707 62.94549952078154 103.04519899808153 H 0.0 **** 0.06
10789 H 20.250293012874703 64.01952673812355 103.74483043059149 H 0.0 **** 0.06
10790 H 21.84633249317351 64.67028607732922 103.29993157297181 H 0.0 **** 0.06
10791 C 60.83192418836171 28.146373324693556 25.608785778654934 C 0.0 **** -0.24
10792 H 60.8788813882594 27.163766481173326 25.140641428238414 H 0.0 **** 0.06
10793 H 61.344989522355405 28.873494761413653 24.97892245921461 H 0.0 **** 0.06
10794 H 61.31358927666844 28.107181194455208 26.585116170015873 H 0.0 **** 0.06
10795 H 59.789472187235106 28.441953669979085 25.728850329952003 H 0.0 **** 0.06
10796 C 50.46015600327579 56.07624747925887 89.3131218419883 C 0.0 **** -0.24
10797 H 50.140066071309896 55.557569704601676 88.40944203569325 H 0.0 **** 0.06
10798 H 49.72776247480971 56.84212727088568 89.57015356565736 H 0.0 **** 0.06
10799 H 51.43003102607023 56.5417410399912 89.14067035066873 H 0.0 **** 0.06
10800 H 50.54110846482374 55.360693201874106 90.13192781199254 H 0.0 **** 0.06
10801 C 13.350147766414182 101.49123889989451 42.595783099733325 C 0.0 **** -0.24
10802 H 13.473897102804756 101.12871911660488 43.61618296720701 H 0.0 **** 0.06
10803 H 12.985990790484863 102.51862640617853 42.61678370439685 H 0.0 **** 0.06
10804 H 12.631594399698628 100.86145072170052 42.070264919947135 H 0.0 **** 0.06
10805 H 14.3096091509002 101.45652912556145 42.078630766093994 H 0.0 **** 0.06
10806 C 81.24964984126748 101.26933289916056 64.8186871853506 C 0.0 **** -0.24
10807 H 81.80134196560465 100.88880782096314 65.678467314545 H 0.0 **** 0.06
10808 H 80.19476879162607 101.0163523658924 64.92253890529264 H 0.0 **** 0.06
10809 H 81.64360148857753 100.819163492173 63.90716207335377 H 0.0 **** 0.06
10810 H 81.35984443326765 102.35232899907783 64.76579131389897 H 0.0 **** 0.06
10811 C 27.8983880796267 92.98532825341158 33.36300626989503 C 0.0 **** -0.24
10812 H 27.31827766586204 93.02265022309328 32.44088676836906 H 0.0 **** 0.06
10813 H 28.461856409872524 93.91107399852206 33.476327066146844 H 0.0 **** 0.06
10814 H 28.58775728476445 92.14132066404164 33.3242153761665 H 0.0 **** 0.06
10815 H 27.224791539406056 92.86363127286666 34.21173236213169 H 0.0 **** 0.06
10816 C 102.96604680775332 41.08451908935436 83.30303900822463 C 0.0 **** -0.24
10817 H 102.32719971641689 40.20434568928553 83.2284026473896 H 0.0 **** 0.06
10818 H 103.4070032349234 41.296808278906894 82.32794350272493 H 0.0 **** 0.06
10819 H 103.75850854196949 40.8969193609083 84.02717442421988 H 0.0 **** 0.06
10820 H 102.37140354601587 41.93884658472763 83.62647727253693 H 0.0 **** 0.06
10821 C 82.99673824934015 27.823721183536833 69.91020221022836 C 0.0 **** -0.24
10822 H 82.87828649355711 26.981218258443477 69.22837053861082 H 0.0 **** 0.06
10823 H 82.17245976205243 28.523091904473432 69.7692022858414 H 0.0 **** 0.06
10824 H 83.94134633805052 28.327744877977665 69.70377519845587 H 0.0 **** 0.06
10825 H 82.99499151088185 27.461460249227144 70.93743405351225 H 0.0 **** 0.06
10826 C 8.639398709705517 78.8983515294517 0.41159109318693154 C 0.0 **** -0.24
10827 H 8.30869218852115 79.81007049424454 0.9074277822137153 H 0.0 **** 0.06
10828 H 8.141700941216754 78.03852119122396 0.8601868117788243 H 0.0 **** 0.06
10829 H 9.718623125666142 78.79434694462486 0.525354521818139 H 0.0 **** 0.06
10830 H 8.389369447625995 78.95051812160216 -0.648144918437259 H 0.0 **** 0.06
10831 C 54.97560697214902 56.455002579435956 38.70591433372434 C 0.0 **** -0.24
10832 H 54.49415983861002 55.959785944262464 39.548790063415424 H 0.0 **** 0.06
10833 H 54.763965784514596 57.52354521859842 38.741872815508856 H 0.0 **** 0.06
10834 H 54.59367262875031 56.039589099851696 37.77376941765212 H 0.0 **** 0.06
10835 H 56.05322339512264 56.29558435002962 38.75930106670657 H 0.0 **** 0.06
10836 C 94.9793064403004 93.59598050811059 98.63278123991657 C 0.0 **** -0.24
10837 H 95.10858510335413 92.88719940984825 99.45057018463848 H 0.0 **** 0.06
10838 H 95.73509928919106 93.4115924336457 97.86880765318753 H 0.0 **** 0.06
10839 H 95.0873647395405 94.61186356363922 99.01306721528928 H 0.0 **** 0.06
10840 H 93.98653124751044 93.47347339817503 98.2000332742852 H 0.0 **** 0.06
10841 C 44.39373973794255 32.67835994802738 85.31197061447085 C 0.0 **** -0.24
10842 H 44.00281202659832 32.35037991323941 86.27510196904291 H 0.0 **** 0.06
10843 H 44.95871913772777 33.60077296802183 85.44405715266817 H 0.0 **** 0.06
10844 H 43.565979983746644 32.85369488909271 84.62428109178018 H 0.0 **** 0.06
10845 H 45.047716623513026 31.90641234945582 84.90486301534011 H 0.0 **** 0.06
10846 C 28.11602369322378 29.665786862487145 20.878106769821443 C 0.0 **** -0.24
10847 H 28.34977415949959 29.219805770974332 21.84485129501084 H 0.0 **** 0.06
10848 H 29.016831027990463 29.693752542325548 20.263418582113786 H 0.0 **** 0.06
10849 H 27.744823548803083 30.679905530836855 21.025765717542697 H 0.0 **** 0.06
10850 H 27.35287481100255 29.06833259767231 20.37802912608913 H 0.0 **** 0.06
10851 C 63.14509641343556 91.17456927978623 81.45308198529568 C 0.0 **** -0.24
10852 H 63.6800744639801 91.61596618777867 80.61199241498761 H 0.0 **** 0.06
10853 H 63.804154942641766 91.13182764535117 82.32065817284192 H 0.0 **** 0.06
10854 H 62.823742394069335 90.16670695592978 81.18936898167911 H 0.0 **** 0.06
10855 H 62.2723286504991 91.78430404597506 81.68866081996461 H 0.0 **** 0.06
10856 C 49.2188576783427 9.52955579664173 110.29413717643732 C 0.0 **** -0.24
10857 H 49.639164226632346 10.050454025181764 111.15408647540877 H 0.0 **** 0.06
10858 H 49.850891612748235 9.697263613721418 109.4225285843994 H 0.0 **** 0.06
10859 H 48.21621093977316 9.908434996626653 110.09461151191469 H 0.0 **** 0.06
10860 H 49.16705887383551 8.46117791461522 110.50620091804409 H 0.0 **** 0.06
10861 C 67.95571913703827 93.44572451327548 66.11462413764986 C 0.0 **** -0.24
10862 H 68.97124455918078 93.60281077332593 65.75341323061076 H 0.0 **** 0.06
10863 H 67.9836137872509 92.85096457767554 67.02797562130792 H 0.0 **** 0.06
10864 H 67.37697918435904 92.91858655016404 65.35536193506505 H 0.0 **** 0.06
10865 H 67.49021702738494 94.40952695577198 66.3228885784522 H 0.0 **** 0.06
10866 C 70.91781616461944 54.4851401416434 53.66395946691369 C 0.0 **** -0.24
10867 H 69.97602968923528 54.13497018320936 53.240786150038396 H 0.0 **** 0.06
10868 H 71.02287319083462 54.10360032298547 54.67954785478401 H 0.0 **** 0.06
10869 H 70.92336194263032 55.575080936653364 53.68292554472012 H 0.0 **** 0.06
10870 H 71.74541875522777 54.12717070897844 53.05224942198958 H 0.0 **** 0.06
10871 C 24.923803109763735 58.820197111044045 39.51036434625871 C 0.0 **** -0.24
10872 H 24.806764062423106 58.02172605567882 38.776524227611276 H 0.0 **** 0.06
10873 H 25.08463366147901 59.766762704071546 38.99292972634092 H 0.0 **** 0.06
10874 H 25.781429678222707 58.60371088126045 40.14839792611318 H 0.0 **** 0.06
10875 H 24.02386277143711 58.886586937402036 40.12031767916872 H 0.0 **** 0.06
10876 C 110.49314704144146 45.05998608754746 90.5450942094578 C 0.0 **** -0.24
10877 H 110.29711888482063 44.77175892264992 91.5776049470847 H 0.0 **** 0.06
10878 H 110.78731447365413 44.18006129300667 89.97196740492913 H 0.0 **** 0.06
10879 H 111.29623496676044 45.796450106429575 90.5202967532502 H 0.0 **** 0.06
10880 H 109.59166265224508 45.49198260291081 90.11142353412728 H 0.0 **** 0.06
10881 C 79.31343078295689 71.02180176423244 12.429877950180703 C 0.0 **** -0.24
10882 H 78.84647048143486 71.3628987929994 11.505623486157496 H 0.0 **** 0.06
10883 H 80.37903059740952 70.86368645751014 12.261147323671093 H 0.0 **** 0.06
10884 H 78.85251733919458 70.08532808451312 12.74530984569244 H 0.0 **** 0.06
10885 H 79.17520768136228 71.77413944742415 13.206239180707595 H 0.0 **** 0.06
10886 C 80.60721488577911 96.47939627804118 55.61926296272598 C 0.0 **** -0.24
10887 H 80.47794410551356 95.52239692496428 56.12568743446504 H 0.0 **** 0.06
10888 H 80.80776047261594 97.2562182662464 56.357053888728956 H 0.0 **** 0.06
10889 H 79.69712059365577 96.72428466947554 55.07134922437067 H 0.0 **** 0.06
10890 H 81.44409122992235 96.4125186057239 54.92419840271942 H 0.0 **** 0.06
10891 C 54.02069078041809 91.2272026103214 97.16303181686621 C 0.0 **** -0.24
10892 H 53.9446097907694 92.27282812049603 97.4613393184882 H 0.0 **** 0.06
10893 H 54.866365569283 90.76504566070426 97.67213542711059 H 0.0 **** 0.06
10894 H 54.166991700430636 91.16560847337885 96.08457616085411 H 0.0 **** 0.06
10895 H 53.10285999293417 90.70469070813527 97.43543489004179 H 0.0 **** 0.06
10896 C 85.06772231929983 9.082759539410972 8.361896455315986 C 0.0 **** -0.24
10897 H 84.87531929948642 8.36299967985417 7.567073745972991 H 0.0 **** 0.06
10898 H 84.26836992242735 9.82373939892733 8.381441271386194 H 0.0 **** 0.06
10899 H 86.02055348416806 9.579062883790044 8.179830234484456 H 0.0 **** 0.06
10900 H 85.10585366418383 8.564535575694435 9.320178942762055 H 0.0 **** 0.06
10901 C 88.84304773553268 44.237299835131964 47.50530314664229 C 0.0 **** -0.24
10902 H 88.84203227685532 43.57336669695115 46.6414020576278 H 0.0 **** 0.06
10903 H 88.92907208103003 45.270675744954225 47.16973881978316 H 0.0 **** 0.06
10904 H 89.68716997889234 43.992680826432654 48.15057487672368 H 0.0 **** 0.06
10905 H 87.91277524111138 44.11101514683708 48.06109787119922 H 0.0 **** 0.06
10906 C 31.24632980135779 38.13335060356516 46.881176607201155 C 0.0 **** -0.24
10907 H 32.02229144791178 38.535638941593504 46.22878555200174 H 0.0 **** 0.06
10908 H 30.524184243977885 37.57455808808808 46.28450148406034 H 0.0 **** 0.06
10909 H 30.74000197040685 38.9533158563367 47.391649494931016 H 0.0 **** 0.06
10910 H 31.69968225199881 37.47073272625164 47.61762920491802 H 0.0 **** 0.06
10911 C 60.164741670861474 99.38065232512 92.41092242722766 C 0.0 **** -0.24
10912 H 59.62571054568264 99.31297503323583 91.46526990479799 H 0.0 **** 0.06
10913 H 59.45040808546932 99.40329051868761 93.23491789100112 H 0.0 **** 0.06
10914 H 60.76253534257734 100.29225495103057 92.4236028396734 H 0.0 **** 0.06
10915 H 60.818357778985785 98.5153945981204 92.51921098115622 H 0.0 **** 0.06
10916 C 87.89054192868423 78.96132424416598 54.89797642201704 C 0.0 **** -0.24
10917 H 87.1762425758906 78.17592694591559 55.14483043336892 H 0.0 **** 0.06
10918 H 88.53268174222197 79.15160774551615 55.7586703915483 H 0.0 **** 0.06
10919 H 87.35316316140052 79.87267547941161 54.63707732916872 H 0.0 **** 0.06
10920 H 88.50093675469415 78.64434798659326 54.052176435621085 H 0.0 **** 0.06
10921 C 33.32466484185085 53.59632378397566 65.44688462835413 C 0.0 **** -0.24
10922 H 32.754875919691926 52.809917282415256 65.94209246435204 H 0.0 **** 0.06
10923 H 33.960625615699314 53.15554626496487 64.67872155814493 H 0.0 **** 0.06
10924 H 33.943652034077104 54.11270271884024 66.17993714191428 H 0.0 **** 0.06
10925 H 32.63730084927636 54.30745431631499 64.9866068787255 H 0.0 **** 0.06
10926 C 13.720054616143642 86.93990131175886 71.06976626497595 C 0.0 **** -0.24
10927 H 12.94586551740673 86.35849904712325 70.56853571356905 H 0.0 **** 0.06
10928 H 13.395008554895867 87.97618837515182 71.16071434819995 H 0.0 **** 0.06
10929 H 14.640577836023624 86.89791943648058 70.48593065408525 H 0.0 **** 0.06
10930 H 13.899945826463153 86.52659850850887 72.06231920992613 H 0.0 **** 0.06
10931 C 63.09509638256077 11.498460574242372 52.65149086040552 C 0.0 **** -0.24
10932 H 62.36597583127951 11.674414498318342 51.86190824298703 H 0.0 **** 0.06
10933 H 62.59893260850532 11.048371889411783 53.51181354451995 H 0.0 **** 0.06
10934 H 63.54661739424023 12.445308531613918 52.947315301752894 H 0.0 **** 0.06
10935 H 63.871067466115335 10.825058214260821 52.28573328871627 H 0.0 **** 0.06
10936 C 30.110172768727836 75.53960816642325 72.18438461523655 C 0.0 **** -0.24
10937 H 30.96261481894126 76.16319889079267 72.45282365805286 H 0.0 **** 0.06
10938 H 29.58313494620836 75.23675922613873 73.08974316449311 H 0.0 **** 0.06
10939 H 30.461568943334044 74.65392053013755 71.65435483145254 H 0.0 **** 0.06
10940 H 29.435681803484144 76.10450377441097 71.54143186298427 H 0.0 **** 0.06
10941 C 106.4115576166015 112.4971344329079 35.71751303987574 C 0.0 **** -0.24
10942 H 105.91594549107666 112.47046523417318 36.688571139216975 H 0.0 **** 0.06
10943 H 105.80028809963966 113.06376180260588 35.01388210799951 H 0.0 **** 0.06
10944 H 106.54319708079422 111.47993132737813 35.3487674938613 H 0.0 **** 0.06
10945 H 107.38574156186276 112.97521143847233 35.82061693916731 H 0.0 **** 0.06
10946 C 16.420234485298067 15.293194855925833 44.44233754784477 C 0.0 **** -0.24
10947 H 15.523499760389313 15.087996667326763 45.02678421784043 H 0.0 **** 0.06
10948 H 16.133971174403882 15.663294065057258 43.457428246973876 H 0.0 **** 0.06
10949 H 16.999230485452188 14.376009471860598 44.33206505614484 H 0.0 **** 0.06
10950 H 17.022320526742533 16.043992641243406 44.95341820154857 H 0.0 **** 0.06
10951 C 41.91360930170174 70.06233654112646 56.11889214243057 C 0.0 **** -0.24
10952 H 41.10861902463694 70.425878153712 56.757948138141415 H 0.0 **** 0.06
10953 H 41.65254105990397 70.23360601855154 55.073933002465175 H 0.0 **** 0.06
10954 H 42.056835300761406 68.99456899027393 56.28802293539704 H 0.0 **** 0.06
10955 H 42.83370663585907 70.59446910281224 56.356581259869394 H 0.0 **** 0.06
10956 C 22.11626429536134 93.90811565235236 73.07721788952415 C 0.0 **** -0.24
10957 H 22.534456966348515 93.2869377198794 73.86868627355113 H 0.0 **** 0.06
10958 H 21.050350114017068 94.05325608715239 73.25346377792883 H 0.0 **** 0.06
10959 H 22.262668086582718 93.41886129658806 72.11443210048344 H 0.0 **** 0.06
10960 H 22.618921486432637 94.87606774752078 73.07192962929 H 0.0 **** 0.06
10961 C 6.215433349033674 92.4597505495476 85.62264802289866 C 0.0 **** -0.24
10962 H 5.154555456873908 92.42671912939093 85.87126103059933 H 0.0 **** 0.06
10963 H 6.356230056092301 93.03400661142052 84.70710521345109 H 0.0 **** 0.06
10964 H 6.585848156437692 91.44491960813906 85.47576557896858 H 0.0 **** 0.06
10965 H 6.764474078100093 92.93193234713681 86.43722153575627 H 0.0 **** 0.06
10966 C 75.33869729272294 21.127340238364013 28.479391747175498 C 0.0 **** -0.24
10967 H 76.00286475983575 20.45833908005045 29.026446960914654 H 0.0 **** 0.06
10968 H 75.87317307408281 22.042865847856632 28.227007405680183 H 0.0 **** 0.06
10969 H 74.47513573594978 21.368210518788374 29.098173011303572 H 0.0 **** 0.06
10970 H 75.00511380825961 20.63742766383666 27.564385112155037 H 0.0 **** 0.06
10971 C 8.768447126257087 80.41395375137947 17.148165337595884 C 0.0 **** -0.24
10972 H 7.789829515470132 80.34950450071833 16.671961300653095 H 0.0 **** 0.06
10973 H 9.278036998144032 79.45464119834321 17.060154228037163 H 0.0 **** 0.06
10974 H 8.644226592407477 80.66535931023603 18.201197084562722 H 0.0 **** 0.06
10975 H 9.360733286593572 81.18676340872659 16.657142134051952 H 0.0 **** 0.06
10976 C 84.43756613384812 3.0597436131795916 98.00326418267562 C 0.0 **** -0.24
10977 H 84.57926443472567 3.9888747723318403 98.554271629286 H 0.0 **** 0.06
10978 H 83.98273196888505 2.315854929768122 98.65773261238684 H 0.0 **** 0.06
10979 H 85.40360339597387 2.6941939695414163 97.6534872279077 H 0.0 **** 0.06
10980 H 83.78602431579242 3.2385319510144654 97.14848448967098 H 0.0 **** 0.06
10981 C 103.75927860605185 63.085917961857184 26.20891648142552 C 0.0 **** -0.24
10982 H 104.29265237735012 63.00846445507087 27.156611470862288 H 0.0 **** 0.06
10983 H 102.68596804668141 63.11933149388239 26.39883864964216 H 0.0 **** 0.06
10984 H 103.99224475622106 62.221215415900694 25.588948280733973 H 0.0 **** 0.06
10985 H 104.06563236365605 63.99657146926095 25.694090336760837 H 0.0 **** 0.06
10986 C 28.11098992791098 68.9373902246518 107.85699913718202 C 0.0 **** -0.24
10987 H 28.77798834429632 69.78786038823623 107.99750889939062 H 0.0 **** 0.06
10988 H 27.212368876800056 69.26388653230288 107.33314249418136 H 0.0 **** 0.06
10989 H 27.835818222750362 68.52616501734781 108.82805873015351 H 0.0 **** 0.06
10990 H 28.61769157512984 68.17275048869902 107.2684042925696 H 0.0 **** 0.06
10991 C 58.9886086196297 39.534189019835054 82.02100833140014 C 0.0 **** -0.24
10992 H 57.92262709418182 39.35618563533933 81.87960265169522 H 0.0 **** 0.06
10993 H 59.424618987269895 39.892136234578345 81.08820762684493 H 0.0 **** 0.06
10994 H 59.4754336415416 38.604821383153336 82.31677105567698 H 0.0 **** 0.06
10995 H 59.13222865529323 40.28269704810762 82.80041991845576 H 0.0 **** 0.06
10996 C 35.44235442758614 67.84592372070205 2.209847182278537 C 0.0 **** -0.24
10997 H 34.58835183969194 68.0848094455028 2.84351079138213 H 0.0 **** 0.06
10998 H 35.09742345168084 67.64928020264898 1.1944849971672795 H 0.0 **** 0.06
10999 H 35.946522187444145 66.96197662004448 2.600541164559246 H 0.0 **** 0.06
11000 H 36.135150763921786 68.6865451726155 2.202838698576386 H 0.0 **** 0.06
11001 C 78.68595574673665 59.68005657542875 74.94027263182011 C 0.0 **** -0.24
11002 H 79.51500558007291 59.90045729102013 75.61181058147588 H 0.0 **** 0.06
11003 H 78.2699146190732 58.70225057530584 75.18616424232752 H 0.0 **** 0.06
11004 H 79.04413066013814 59.674422700131515 73.91105965479343 H 0.0 **** 0.06
11005 H 77.91430205519396 60.442246999903546 75.05229840564576 H 0.0 **** 0.06
11006 C 74.16824871563202 80.07383819197128 8.411687338412975 C 0.0 **** -0.24
11007 H 73.92653584182204 80.46939688720192 9.398739847248919 H 0.0 **** 0.06
11008 H 75.14149996820865 79.58342908914108 8.445868406919175 H 0.0 **** 0.06
11009 H 74.19732580367955 80.89132157886087 7.691623593151903 H 0.0 **** 0.06
11010 H 73.40737270704923 79.3528916640114 8.113693783603296 H 0.0 **** 0.06
11011 C 98.31891717028532 66.46724877998236 89.68673235996366 C 0.0 **** -0.24
11012 H 97.33342335620014 66.1823061346683 89.31575644514339 H 0.0 **** 0.06
11013 H 98.60714218194803 67.4247356304457 89.25344996431153 H 0.0 **** 0.06
11014 H 99.04586595179893 65.70586521651711 89.4048690954148 H 0.0 **** 0.06
11015 H 98.28592063755696 66.55365015792148 90.77261375180981 H 0.0 **** 0.06
11016 C 15.043878315158622 57.621835598455284 34.35912822156527 C 0.0 **** -0.24
11017 H 15.507482191648847 58.50836441225798 33.925446834728454 H 0.0 **** 0.06
11018 H 15.79859501709106 57.042496630623255 34.892451330454044 H 0.0 **** 0.06
11019 H 14.611433278664094 57.013346188201176 33.565037985350294 H 0.0 **** 0.06
11020 H 14.260681824589625 57.92531439732105 35.05330415338268 H 0.0 **** 0.06
11021 C 19.80709402489083 107.50138219180837 49.85498816886451 C 0.0 **** -0.24
11022 H 20.12500451318857 107.42148773926674 50.89467091081855 H 0.0 **** 0.06
11023 H 18.725902446029636 107.63336527280718 49.81536976405761 H 0.0 **** 0.06
11024 H 20.082754597666167 106.59140811796175 49.32103041510396 H 0.0 **** 0.06
11025 H 20.296279153940816 108.35695977309494 49.3899889541575 H 0.0 **** 0.06
11026 C 44.18153520915481 41.28080959321392 37.92245668780873 C 0.0 **** -0.24
11027 H 43.48432398444882 41.97771867710679 38.387597127720255 H 0.0 **** 0.06
11028 H 45.12093122776363 41.2845285201027 38.47492266552047 H 0.0 **** 0.06
11029 H 44.36418570332188 41.582734175692906 36.891601372554874 H 0.0 **** 0.06
11030 H 43.75461900610842 40.277682029399784 37.937788783038 H 0.0 **** 0.06
11031 C 41.88863378975441 72.58287240309187 2.8964988572765833 C 0.0 **** -0.24
11032 H 42.63116584577608 71.99919831441207 2.352133071717816 H 0.0 **** 0.06
11033 H 41.913023767439995 73.61581883369138 2.548017520879853 H 0.0 **** 0.06
11034 H 42.112614239510094 72.55201259853482 3.9625930351632803 H 0.0 **** 0.06
11035 H 40.89813795482348 72.16351360748843 2.7210292864064627 H 0.0 **** 0.06
11036 C 92.6024919060612 19.450598099798384 92.4721843024937 C 0.0 **** -0.24
11037 H 93.04622410916596 18.459847086773692 92.57245182766403 H 0.0 **** 0.06
11038 H 92.5301123944144 19.7107384830166 91.41607986332761 H 0.0 **** 0.06
11039 H 93.22773389627625 20.182243405299943 92.98433273261048 H 0.0 **** 0.06
11040 H 91.60757221460076 19.449170814472495 92.91567170022824 H 0.0 **** 0.06
11041 C 90.29469651016382 25.849294113748016 40.28351483163266 C 0.0 **** -0.24
11042 H 90.90784029713015 26.527717992625014 39.68927818187322 H 0.0 **** 0.06
11043 H 89.84030040433927 26.398706132019328 41.107869118821014 H 0.0 **** 0.06
11044 H 90.92026399775287 25.04852736040877 40.68034152484853 H 0.0 **** 0.06
11045 H 89.51307352536284 25.42165410343918 39.65501267418023 H 0.0 **** 0.06
11046 C 30.849616569886138 100.90645865817066 26.211995702996077 C 0.0 **** -0.24
11047 H 30.66052786193535 100.29371931098922 25.3302823867003 H 0.0 **** 0.06
11048 H 31.053457034814272 100.26186781973365 27.06625153807103 H 0.0 **** 0.06
11049 H 29.973848127454886 101.52150372536465 26.420793769360003 H 0.0 **** 0.06
11050 H 31.709279070346184 101.5511321645123 26.028112957297118 H 0.0 **** 0.06
11051 C 104.09163513547415 31.95656771589489 71.83318726359539 C 0.0 **** -0.24
11052 H 105.11510925320019 32.27790010723902 71.63967338830372 H 0.0 **** 0.06
11053 H 104.04170943798536 30.86709136809077 71.80257302388722 H 0.0 **** 0.06
11054 H 103.43142134723965 32.37216244254887 71.07169518377424 H 0.0 **** 0.06
11055 H 103.77990248203511 32.3076773569922 72.81574771281225 H 0.0 **** 0.06
11056 C 54.538885390728325 14.303648084760198 111.26449445449501 C 0.0 **** -0.24
11057 H 53.51775349593941 14.303685959829807 111.64498756443072 H 0.0 **** 0.06
11058 H 54.70394584973218 15.197811438425333 110.66266775131942 H 0.0 **** 0.06
11059 H 54.698221723243655 13.417652514658016 110.65057660538211 H 0.0 **** 0.06
11060 H 55.23795123142686 14.295319879771796 112.10187972267639 H 0.0 **** 0.06
11061 C 88.45216943854416 108.9646291685027 26.99469021661878 C 0.0 **** -0.24
11062 H 87.92501195177277 108.01434913669951 27.071924706052528 H 0.0 **** 0.06
11063 H 89.26682804875034 108.98855594629579 27.720441833707895 H 0.0 **** 0.06
11064 H 87.76055546205637 109.78210587910532 27.198431045089478 H 0.0 **** 0.06
11065 H 88.85805320997474 109.074510399412 25.989325188915046 H 0.0 **** 0.06
11066 C 53.68403281817774 39.95920842962562 73.36810629337955 C 0.0 **** -0.24
11067 H 52.739515814117766 40.15095661780151 73.87814717722932 H 0.0 **** 0.06
11068 H 54.45830788281574 39.748069640925735 74.10573148943323 H 0.0 **** 0.06
11069 H 53.96617188630107 40.83624113739063 72.78595550366808 H 0.0 **** 0.06
11070 H 53.57068581011045 39.102779722648336 72.7037850690327 H 0.0 **** 0.06
11071 C 10.241252444219754 6.046944819058751 20.237093932015057 C 0.0 **** -0.24
11072 H 9.153815661170029 5.989839058243064 20.281518529390098 H 0.0 **** 0.06
11073 H 10.633106951589355 6.289307405945493 21.224313635319447 H 0.0 **** 0.06
11074 H 10.534221648120706 6.822500059486742 19.528405293201843 H 0.0 **** 0.06
11075 H 10.642473649043666 5.087199008152453 19.91191875236808 H 0.0 **** 0.06
11076 C 4.604547994215807 70.20584684469014 34.765362256616534 C 0.0 **** -0.24
11077 H 4.9434772771668065 70.01074041327428 33.748243888200676 H 0.0 **** 0.06
11078 H 5.018882165284779 71.15384340776245 35.11015808914593 H 0.0 **** 0.06
11079 H 4.941825711352465 69.40272432721378 35.42055944060683 H 0.0 **** 0.06
11080 H 3.51625083819566 70.25699642031236 34.78213618387758 H 0.0 **** 0.06
11081 C 83.68287449143673 4.655757151207439 104.72929164312427 C 0.0 **** -0.24
11082 H 82.64030080202818 4.903359688104132 104.53202932230272 H 0.0 **** 0.06
11083 H 83.7737289631597 4.231371343110993 105.72984280002802 H 0.0 **** 0.06
11084 H 84.29024294988031 5.558244807129142 104.66086669135578 H 0.0 **** 0.06
11085 H 84.02906349881297 3.928999628552873 103.9937121975554 H 0.0 **** 0.06
11086 C 82.92016610940703 51.71750614684132 99.5407206376664 C 0.0 **** -0.24
11087 H 83.64335914850221 51.14064070528345 100.11840788849005 H 0.0 **** 0.06
11088 H 81.93014589098874 51.27693336974758 99.65637511256097 H 0.0 **** 0.06
11089 H 83.20357691028659 51.705076589566666 98.4884724772696 H 0.0 **** 0.06
11090 H 82.90508742682158 52.74668901466841 99.9011325102241 H 0.0 **** 0.06
11091 C 53.32326078183459 25.735975100972013 66.72952108679127 C 0.0 **** -0.24
11092 H 53.34319304163097 26.769431489921317 67.07346717111022 H 0.0 **** 0.06
11093 H 52.37932606370606 25.2747558157578 67.0200850419123 H 0.0 **** 0.06
11094 H 54.1505528263572 25.187476266018507 67.17958694301564 H 0.0 **** 0.06
11095 H 53.419869427053385 25.712682809971398 65.64405591968537 H 0.0 **** 0.06
11096 C 37.21295077338203 64.65644202066318 71.76791384114034 C 0.0 **** -0.24
11097 H 37.08426132139465 65.63736922448106 72.22665483449535 H 0.0 **** 0.06
11098 H 37.2235982503081 64.76258082662679 70.6824786027116 H 0.0 **** 0.06
11099 H 36.388935279896884 64.00762906896023 72.06166289174277 H 0.0 **** 0.06
11100 H 38.15548982909536 64.22065226346592 72.0995549357844 H 0.0 **** 0.06
11101 C 64.0462158874848 34.95238841453755 11.611120307046065 C 0.0 **** -0.24
11102 H 63.071654064094666 34.81844592046434 11.141692944481775 H 0.0 **** 0.06
11103 H 63.965544037619544 35.6927939251639 12.407244132803157 H 0.0 **** 0.06
11104 H 64.76335521366798 35.29542058716899 10.865934117271621 H 0.0 **** 0.06
11105 H 64.38152204781099 34.003350342571366 12.02947769955226 H 0.0 **** 0.06
11106 C 63.47099199211323 91.86734464035058 4.640206323249345 C 0.0 **** -0.24
11107 H 64.08590012751881 92.3991312876588 5.3666176142421875 H 0.0 **** 0.06
11108 H 63.15990705494471 90.91026175843012 5.057782489661236 H 0.0 **** 0.06
11109 H 64.04890757588498 91.69768699420968 3.73188796805249 H 0.0 **** 0.06
11110 H 62.59072274731545 92.46605836243066 4.403697567611005 H 0.0 **** 0.06
11111 C 71.71854001117381 102.95434750080386 27.002890722688335 C 0.0 **** -0.24
11112 H 70.99518879985348 102.56981652615409 27.723107663177757 H 0.0 **** 0.06
11113 H 71.68373599142953 102.35013052799033 26.095847189238327 H 0.0 **** 0.06
11114 H 72.71875855697158 102.90907114949428 27.433552183780762 H 0.0 **** 0.06
11115 H 71.47434176436676 103.98919075686854 26.76099798856464 H 0.0 **** 0.06
11116 C 52.16827258649907 38.23024244825851 62.794551773016224 C 0.0 **** -0.24
11117 H 52.614075911613654 37.2402194502142 62.69901516585293 H 0.0 **** 0.06
11118 H 51.94920561607942 38.62661586710735 61.80318143126499 H 0.0 **** 0.06
11119 H 52.86457759739135 38.89379922705903 63.3063770036477 H 0.0 **** 0.06
11120 H 51.24534935484262 38.15792483902874 63.36921359826863 H 0.0 **** 0.06
11121 C 102.44179734151865 101.30121649862886 10.402722973163122 C 0.0 **** -0.24
11122 H 102.27700333196043 101.71857454922542 9.409067793862349 H 0.0 **** 0.06
11123 H 102.8049483270803 102.08235076280556 11.069781404719734 H 0.0 **** 0.06
11124 H 103.18044941282895 100.50175257301754 10.342374358545428 H 0.0 **** 0.06
11125 H 101.50319782718546 100.90105654787618 10.787180253881516 H 0.0 **** 0.06
11126 C 84.54711680379222 96.12541977432528 30.96212956824067 C 0.0 **** -0.24
11127 H 84.20366444528918 97.03107225597594 31.461400448519754 H 0.0 **** 0.06
11128 H 83.6866411983471 95.52436065773702 30.667764023290175 H 0.0 **** 0.06
11129 H 85.17686843194662 95.55137676518143 31.642679320920706 H 0.0 **** 0.06
11130 H 85.12256738682728 96.39454227173943 30.07615545954573 H 0.0 **** 0.06
11131 C 52.68159147890981 73.33775896153824 70.11356386388911 C 0.0 **** -0.24
11132 H 52.432015422764266 72.28158296096524 70.21981118579595 H 0.0 **** 0.06
11133 H 52.45323012822689 73.66293949677987 69.09801811585231 H 0.0 **** 0.06
11134 H 53.74366302352047 73.48089225653149 70.31127388798137 H 0.0 **** 0.06
11135 H 52.096888190366656 73.9222528500608 70.82263596585588 H 0.0 **** 0.06
11136 C 89.86077816275534 87.68290643160387 44.93634058397879 C 0.0 **** -0.24
11137 H 90.66512451353648 87.41498480039115 44.251378302287236 H 0.0 **** 0.06
11138 H 89.91604236321757 88.74774812914808 45.163731102660165 H 0.0 **** 0.06
11139 H 89.96346314474536 87.10906951060161 45.857725634266416 H 0.0 **** 0.06
11140 H 88.89959937204594 87.45860604263464 44.47365487417093 H 0.0 **** 0.06
11141 C 53.80918191835681 62.84091406050742 90.09255938466598 C 0.0 **** -0.24
11142 H 53.83944120987627 62.31571984121333 91.0470119898551 H 0.0 **** 0.06
11143 H 54.805327341192736 62.84551371348646 89.64945266877015 H 0.0 **** 0.06
11144 H 53.47669623839437 63.866330913046106 90.2532047256754 H 0.0 **** 0.06
11145 H 53.114765756667225 62.33527310518095 89.42160871132828 H 0.0 **** 0.06
11146 C 112.64539716762977 59.14535823641583 1.9407344855971722 C 0.0 **** -0.24
11147 H 113.39101918271908 58.36683100839437 1.7814406769328919 H 0.0 **** 0.06
11148 H 113.03805808165956 59.886516627892775 2.6377424511252183 H 0.0 **** 0.06
11149 H 111.73923625574218 58.701592968422574 2.3543493267379727 H 0.0 **** 0.06
11150 H 112.4136930833948 59.62669065001367 0.9902920891100475 H 0.0 **** 0.06
11151 C 68.14586876894094 38.7474865658714 97.60223701889814 C 0.0 **** -0.24
11152 H 68.19422611359778 38.485188475363074 96.54509667739015 H 0.0 **** 0.06
11153 H 68.71032837310136 39.66414247582324 97.7748282103594 H 0.0 **** 0.06
11154 H 68.57185740663792 37.93973432964134 98.19707008412655 H 0.0 **** 0.06
11155 H 67.10554122386614 38.90233343433411 97.89006247417672 H 0.0 **** 0.06
11156 C 36.718371475633006 7.1023116988331765 78.23438450712621 C 0.0 **** -0.24
11157 H 35.86167028556727 7.669408754731819 77.86745057918802 H 0.0 **** 0.06
11158 H 36.82408102401345 6.1881411576843846 77.64936214750634 H 0.0 **** 0.06
11159 H 36.563016485750836 6.847352801820421 79.28183143872963 H 0.0 **** 0.06
11160 H 37.62117208737368 7.70412066457493 78.13523636348947 H 0.0 **** 0.06
11161 C 112.31812275057891 23.37715351607784 39.53848370981558 C 0.0 **** -0.24
11162 H 113.21765606819214 23.762021924465074 40.01777740501359 H 0.0 **** 0.06
11163 H 111.44414542100726 23.887746606231275 39.94346116434559 H 0.0 **** 0.06
11164 H 112.2341249407232 22.30704172184707 39.72917595231638 H 0.0 **** 0.06
11165 H 112.37622435757783 23.551735037569387 38.464458177230966 H 0.0 **** 0.06
11166 C 43.27608315978961 91.47347309568298 90.17092813899646 C 0.0 **** -0.24
11167 H 43.34963739986057 92.10253207291015 89.28445879296191 H 0.0 **** 0.06
11168 H 42.27585457886519 91.0433232281184 90.22861962381378 H 0.0 **** 0.06
11169 H 43.46460575436785 92.07514930590415 91.05993564571523 H 0.0 **** 0.06
11170 H 44.013319712674814 90.67251825707828 90.11053745406593 H 0.0 **** 0.06
11171 C 66.04707117631781 68.03959086692663 62.700162450187 C 0.0 **** -0.24
11172 H 65.02615353339314 68.39488803798304 62.838764234362536 H 0.0 **** 0.06
11173 H 66.0835380208101 66.9634656243395 62.876202643274986 H 0.0 **** 0.06
11174 H 66.70603981645624 68.54600569775829 63.40572730451682 H 0.0 **** 0.06
11175 H 66.37155015681688 68.25291588763127 61.68190747716867 H 0.0 **** 0.06
11176 C 92.88654327288094 102.60121791050472 30.657546840041952 C 0.0 **** -0.24
11177 H 93.81924852578004 102.77912725954263 30.122542589180526 H 0.0 **** 0.06
11178 H 92.86659315119783 101.57385411380511 31.021226662904894 H 0.0 **** 0.06
11179 H 92.04542862256451 102.76477404261396 29.983753152644972 H 0.0 **** 0.06
11180 H 92.81569314523927 103.28834861916329 31.50070105897818 H 0.0 **** 0.06
11181 C 23.758951401926538 1.984806228107658 18.632500199854807 C 0.0 **** -0.24
11182 H 23.73716560370525 3.065854780159043 18.49623657869448 H 0.0 **** 0.06
11183 H 23.916369597770142 1.7552724603857541 19.6873510274295 H 0.0 **** 0.06
11184 H 24.570776671586827 1.5611462922934152 18.042777147058676 H 0.0 **** 0.06
11185 H 22.810223539177457 1.5579938161293683 18.30545271073124 H 0.0 **** 0.06
11186 C 42.24527240992185 7.0341516124624945 84.37760899184144 C 0.0 **** -0.24
11187 H 42.850622250752224 6.595991299008574 83.58363321077968 H 0.0 **** 0.06
11188 H 41.787919912694065 7.956355796206822 84.01827549308112 H 0.0 **** 0.06
11189 H 42.87664235220359 7.251758316571795 85.23812082495203 H 0.0 **** 0.06
11190 H 41.46461165314312 6.330205254181635 84.66774991760457 H 0.0 **** 0.06
11191 C 68.60098801104812 50.50031152533167 54.82902286802741 C 0.0 **** -0.24
11192 H 67.99460612361756 50.328984956627785 55.718639428106485 H 0.0 **** 0.06
11193 H 69.11496379160641 49.57828908459082 54.55729707405138 H 0.0 **** 0.06
11194 H 69.33466180531545 51.27939535988762 55.034598884272725 H 0.0 **** 0.06
11195 H 67.95762448313985 50.8148408783887 54.00628953373888 H 0.0 **** 0.06
11196 C 92.33166859542015 41.427773124526645 62.40114233936104 C 0.0 **** -0.24
11197 H 93.01224652663174 41.43049508796414 63.252630253037644 H 0.0 **** 0.06
11198 H 92.4094459478276 42.376621697167884 61.86982558732105 H 0.0 **** 0.06
11199 H 91.30934504756647 41.2909580724619 62.753621551372284 H 0.0 **** 0.06
11200 H 92.59575234084829 40.61102687253271 61.72833790780826 H 0.0 **** 0.06
11201 C 62.263016782045646 64.55332254290099 77.69469204664884 C 0.0 **** -0.24
11202 H 61.48202250452494 64.1211534711448 77.07036590511217 H 0.0 **** 0.06
11203 H 61.991611858040564 64.44538317816992 78.74501050878567 H 0.0 **** 0.06
11204 H 62.375898578265826 65.61152841021382 77.45509543382815 H 0.0 **** 0.06
11205 H 63.20420941412063 64.03705111791095 77.50693260438365 H 0.0 **** 0.06
11206 C 44.950371225590345 90.54911874058226 106.71614141105366 C 0.0 **** -0.24
11207 H 44.607206722868966 91.58360899807127 106.7295735179907 H 0.0 **** 0.06
11208 H 44.442732760200784 89.98700954626435 107.50041742668077 H 0.0 **** 0.06
11209 H 46.0262465647765 90.52165242459142 106.88792682078093 H 0.0 **** 0.06
11210 H 44.726255041406546 90.10392691801718 105.74655304953154 H 0.0 **** 0.06
11211 C 3.9407477301702443 102.31911107131245 88.7830437107587 C 0.0 **** -0.24
11212 H 3.820848717049671 102.07526008406768 89.83857452777733 H 0.0 **** 0.06
11213 H 4.016869539795891 103.40090524930659 88.66662935320576 H 0.0 **** 0.06
11214 H 3.078024636712314 101.95363764997771 88.22587367994177 H 0.0 **** 0.06
11215 H 4.846582510376379 101.84755418695235 88.40241025526618 H 0.0 **** 0.06
11216 C 20.314931707533614 79.00265190444773 78.01633742045061 C 0.0 **** -0.24
11217 H 19.601246581251583 78.51244700149721 78.67761347251488 H 0.0 **** 0.06
11218 H 20.905582479025213 78.248239341345 77.49668682907338 H 0.0 **** 0.06
11219 H 20.975440883459026 79.64099330047617 78.60378982096816 H 0.0 **** 0.06
11220 H 19.777456886398436 79.60892797447238 77.2872595592462 H 0.0 **** 0.06
11221 C 104.12179865545141 66.44416749073699 46.42660630196002 C 0.0 **** -0.24
11222 H 104.8397259879813 65.64042088113118 46.59070425093702 H 0.0 **** 0.06
11223 H 103.11129687016535 66.06331278626368 46.57625339206612 H 0.0 **** 0.06
11224 H 104.22300695553952 66.81771252206715 45.40700763061068 H 0.0 **** 0.06
11225 H 104.31425779996431 67.25233752676812 47.13124520270392 H 0.0 **** 0.06
11226 C 72.18436750117488 35.793485366789916 97.87800819062593 C 0.0 **** -0.24
11227 H 72.20779454105121 35.19896940509503 98.79145460430985 H 0.0 **** 0.06
11228 H 73.13517232463934 35.69133122001455 97.35465924178939 H 0.0 **** 0.06
11229 H 72.0187278744583 36.84064235082977 98.13032570530748 H 0.0 **** 0.06
11230 H 71.37680142798888 35.441100592515646 97.2361807931955 H 0.0 **** 0.06
11231 C 49.50286713947068 16.18415118389369 101.93289975966238 C 0.0 **** -0.24
11232 H 48.64325436208071 16.6648816132147 101.4660095022877 H 0.0 **** 0.06
11233 H 50.186780998963826 15.833754406174847 101.15999853134008 H 0.0 **** 0.06
11234 H 49.16391097090394 15.3381831613307 102.5310036138898 H 0.0 **** 0.06
11235 H 50.014008161305185 16.901038123333517 102.57487586317478 H 0.0 **** 0.06
11236 C 5.806401205139878 66.0603140039936 62.18498193104727 C 0.0 **** -0.24
11237 H 5.736189914034881 65.08810107240578 61.69596777404109 H 0.0 **** 0.06
11238 H 6.634587315793468 66.62443630760993 61.754371591443366 H 0.0 **** 0.06
11239 H 5.979589592674188 65.91839996011225 63.25183927320838 H 0.0 **** 0.06
11240 H 4.876775524621763 66.60881324939766 62.03714082002133 H 0.0 **** 0.06
11241 C 16.074210763100524 65.51516154492509 37.7537041279557 C 0.0 **** -0.24
11242 H 17.022638536958425 65.03025206669929 37.983371072730954 H 0.0 **** 0.06
11243 H 15.573750489182174 65.79351429899967 38.68199542754072 H 0.0 **** 0.06
11244 H 15.441550706150508 64.82678870080133 37.19206229186841 H 0.0 **** 0.06
11245 H 16.25757190001059 66.40829791222231 37.157497421046244 H 0.0 **** 0.06
11246 C 58.50099908484032 35.043470514196656 55.85385262379111 C 0.0 **** -0.24
11247 H 59.46529264927867 34.7495585944084 55.43990206361764 H 0.0 **** 0.06
11248 H 58.02054783375346 34.17573789671647 56.30591466873679 H 0.0 **** 0.06
11249 H 57.86803416550712 35.43705883883666 55.057922296629386 H 0.0 **** 0.06
11250 H 58.65060080253169 35.812846868358804 56.611504757610874 H 0.0 **** 0.06
11251 C 101.62489598027048 87.75701384517328 19.42977314854503 C 0.0 **** -0.24
11252 H 101.65858965642786 88.1202061925313 18.401346878800712 H 0.0 **** 0.06
11253 H 102.10701623781108 86.78057537134882 19.48476768318578 H 0.0 **** 0.06
11254 H 100.58640208741241 87.67025532466218 19.749877512447988 H 0.0 **** 0.06
11255 H 102.14818928970965 88.45812986899966 20.07958065652845 H 0.0 **** 0.06
11256 C 3.102208689983499 28.27088190852608 98.60640957586983 C 0.0 **** -0.24
11257 H 2.827464899279505 27.279214199282563 98.96577622665541 H 0.0 **** 0.06
11258 H 2.7025234185303475 28.416221972156308 97.60309890341398 H 0.0 **** 0.06
11259 H 4.1882080823694 28.360148740759087 98.58244850873339 H 0.0 **** 0.06
11260 H 2.6894829599782355 29.026747894023316 99.27542716842103 H 0.0 **** 0.06
11261 C 102.80000598971534 104.88992273616176 92.97975413520399 C 0.0 **** -0.24
11262 H 103.07262541074309 104.71831106880609 91.937643982228 H 0.0 **** 0.06
11263 H 103.69318194746481 105.1403431743789 93.5521374874944 H 0.0 **** 0.06
11264 H 102.34647141413095 103.98766262909038 93.38890132712334 H 0.0 **** 0.06
11265 H 102.0871018132176 105.71262400448163 93.03672482957907 H 0.0 **** 0.06
11266 C 13.393779928511549 55.228625141097965 112.13467614413695 C 0.0 **** -0.24
11267 H 12.746073151460166 54.637606389887495 112.78263770875299 H 0.0 **** 0.06
11268 H 12.790607777359554 55.718301426638384 111.36902545446003 H 0.0 **** 0.06
11269 H 14.124917579472509 54.575602603484015 111.6592556677987 H 0.0 **** 0.06
11270 H 13.911258142475901 55.982053407226154 112.72774821633061 H 0.0 **** 0.06
11271 C 64.85601257619965 49.23241698771265 62.37028967437851 C 0.0 **** -0.24
11272 H 63.8261414254636 48.976430332779344 62.120370358143504 H 0.0 **** 0.06
11273 H 65.45663556790538 49.25006743918727 61.46058757901605 H 0.0 **** 0.06
11274 H 65.25836187376873 48.48736483025944 63.0568388193397 H 0.0 **** 0.06
11275 H 64.8815283866121 50.21407172845439 62.84232171447903 H 0.0 **** 0.06
11276 C 13.099116754788156 37.559972953114084 17.54738078769708 C 0.0 **** -0.24
11277 H 13.905176115344602 37.88813178397703 18.202890072547632 H 0.0 **** 0.06
11278 H 12.29925053116689 38.300579230596895 17.556478629962328 H 0.0 **** 0.06
11279 H 12.71160821317423 36.603108083965594 17.899409524310414 H 0.0 **** 0.06
11280 H 13.479186076420149 37.44712188234544 16.53233975310684 H 0.0 **** 0.06
11281 C 52.669140336369246 65.89481104048437 24.817709536691183 C 0.0 **** -0.24
11282 H 52.89317704034761 66.29291716234621 25.8070479140478 H 0.0 **** 0.06
11283 H 51.663394819688776 65.47564619249312 24.81395101091607 H 0.0 **** 0.06
11284 H 53.389342668413214 65.11558931478368 24.568568042490483 H 0.0 **** 0.06
11285 H 52.73223368290672 66.69622657842115 24.080831107603842 H 0.0 **** 0.06
11286 C 19.64088607743434 1.424337355323246 0.9726889013685138 C 0.0 **** -0.24
11287 H 19.87020794952001 0.6463891867999223 1.7010236629333235 H 0.0 **** 0.06
11288 H 18.91253159541598 2.1157136576507583 1.3963101219404024 H 0.0 **** 0.06
11289 H 19.229326375085712 0.9678612018678905 0.07282586258857293 H 0.0 **** 0.06
11290 H 20.553365074273124 1.9658233809195735 0.7206265569625288 H 0.0 **** 0.06
11291 C 46.054222293497894 101.17046360763791 105.06146201112159 C 0.0 **** -0.24
11292 H 46.87104942067876 100.45098835136085 105.11289308372895 H 0.0 **** 0.06
11293 H 45.11770850863613 100.6754765655837 105.31758136608153 H 0.0 **** 0.06
11294 H 45.98921589047257 101.57419780210464 104.05120350799953 H 0.0 **** 0.06
11295 H 46.24128568166512 101.98177754723471 105.76559795151977 H 0.0 **** 0.06
11296 C 18.32982917762743 5.172955224852387 77.22090369942114 C 0.0 **** -0.24
11297 H 18.64911601021143 5.610484626835273 76.2749727643199 H 0.0 **** 0.06
11298 H 17.877280106178915 4.199071271014475 77.03627778387607 H 0.0 **** 0.06
11299 H 17.600886259584797 5.828292913373389 77.69692059731432 H 0.0 **** 0.06
11300 H 19.193928970339584 5.0545650671438125 77.875200839456 H 0.0 **** 0.06
11301 C 109.87472227774107 41.813246839147325 38.385836884879495 C 0.0 **** -0.24
11302 H 109.119554387924 42.1916670281486 37.696329050431444 H 0.0 **** 0.06
11303 H 110.72958047634859 42.48893717774381 38.3936712026844 H 0.0 **** 0.06
11304 H 110.19630444460661 40.822558945633574 38.06348174481931 H 0.0 **** 0.06
11305 H 109.45094767562159 41.74990826066664 39.38821242079902 H 0.0 **** 0.06
11306 C 100.1889232855039 89.88476068612167 97.66553825909247 C 0.0 **** -0.24
11307 H 101.20056088167334 89.95328082242071 97.26383833113633 H 0.0 **** 0.06
11308 H 100.21745444830677 90.02714373466418 98.7464464449904 H 0.0 **** 0.06
11309 H 99.7741773217574 88.9033926501304 97.4378193797422 H 0.0 **** 0.06
11310 H 99.56640049913028 90.65712024945921 97.2140225164267 H 0.0 **** 0.06
11311 C 39.24804358392237 28.105968868399927 30.592407992323558 C 0.0 **** -0.24
11312 H 39.20696074950354 29.159149949434806 30.869830388965454 H 0.0 **** 0.06
11313 H 38.40670688679518 27.869877743216094 29.940862957740464 H 0.0 **** 0.06
11314 H 39.19737339667299 27.491102701305465 31.490649319724298 H 0.0 **** 0.06
11315 H 40.18191842373432 27.906005319220412 30.066479492775045 H 0.0 **** 0.06
11316 C 56.880531408836305 6.155803360451188 93.7317158785693 C 0.0 **** -0.24
11317 H 57.861178714455804 5.679621305309894 93.7584359172059 H 0.0 **** 0.06
11318 H 56.105239802770825 5.395099065459675 93.81829672040905 H 0.0 **** 0.06
11319 H 56.762108987995504 6.690467476220519 92.78836498968207 H 0.0 **** 0.06
11320 H 56.79567244578533 6.858656911598558 94.56062615280328 H 0.0 **** 0.06
11321 C 81.69782665557534 91.18739029579683 67.17477509677411 C 0.0 **** -0.24
11322 H 81.26415814353544 92.14886631996018 67.4484625590593 H 0.0 **** 0.06
11323 H 82.25151227994377 90.78413576191906 68.02356864455783 H 0.0 **** 0.06
11324 H 82.37492954580244 91.32089370129682 66.33056543305099 H 0.0 **** 0.06
11325 H 80.90296958549033 90.49530580109979 66.89736987143505 H 0.0 **** 0.06
11326 C 0.24436269477892836 81.16990159693722 31.834143795090597 C 0.0 **** -0.24
11327 H -0.722556293516547 81.67111103544693 31.871881417865666 H 0.0 **** 0.06
11328 H 0.1266538382992337 80.1290156920557 32.13592279198741 H 0.0 **** 0.06
11329 H 0.9372782347032995 81.66881545036767 32.512312992085754 H 0.0 **** 0.06
11330 H 0.6361434348770132 81.2127237262979 30.81778238360272 H 0.0 **** 0.06
11331 C 0.11316870869815432 76.3226988868596 61.240779888233895 C 0.0 **** -0.24
11332 H -0.654714506537033 75.61543752744964 61.55380722344636 H 0.0 **** 0.06
11333 H 0.05377122722359218 77.22036134714665 61.85672020243337 H 0.0 **** 0.06
11334 H -0.042547955263430026 76.58760080901303 60.19570592113846 H 0.0 **** 0.06
11335 H 1.0962671656683511 75.86602175169375 61.35720512412832 H 0.0 **** 0.06
11336 C 50.15912724173239 53.647911224928606 5.678638639591512 C 0.0 **** -0.24
11337 H 50.36299451056962 54.514762158696556 6.305823529245117 H 0.0 **** 0.06
11338 H 51.100905778442524 53.19109583584475 5.373885788221912 H 0.0 **** 0.06
11339 H 49.60475392266312 53.96161556540986 4.793815363020201 H 0.0 **** 0.06
11340 H 49.56830321629076 52.92378315768832 6.240224735594069 H 0.0 **** 0.06
11341 C 33.88469802737694 50.151025975876024 16.594257534595243 C 0.0 **** -0.24
11342 H 33.31033229818138 49.547240463439365 17.297365274650417 H 0.0 **** 0.06
11343 H 33.20260950648827 50.70024998611362 15.945035198431668 H 0.0 **** 0.06
11344 H 34.51740615991355 49.49997049287368 15.991076332864878 H 0.0 **** 0.06
11345 H 34.50901042593301 50.85411057584452 17.14561899814106 H 0.0 **** 0.06
11346 C 74.8361116545517 1.7633218132938282 91.01529867640431 C 0.0 **** -0.24
11347 H 74.42515761842236 0.9939503614167222 90.3606645722385 H 0.0 **** 0.06
11348 H 75.68917043676015 2.2363963410464294 90.52684017425821 H 0.0 **** 0.06
11349 H 75.15830480339827 1.3094661786736026 91.95186685987025 H 0.0 **** 0.06
11350 H 74.07154047945784 2.512909654510082 91.21827244445569 H 0.0 **** 0.06
11351 C 12.462287799611186 63.81993100781896 13.493954944075767 C 0.0 **** -0.24
11352 H 13.140448333046812 64.53467636037871 13.027682742940073 H 0.0 **** 0.06
11353 H 11.8911190599075 63.304191642834475 12.722701737711134 H 0.0 **** 0.06
11354 H 11.780467572597647 64.3488265419845 14.159485596858318 H 0.0 **** 0.06
11355 H 13.039371717185482 63.09350101382203 14.066814482287839 H 0.0 **** 0.06
11356 C 42.63361578965396 11.714893377496754 82.02277383723111 C 0.0 **** -0.24
11357 H 43.404048595506616 11.976319900189964 82.7491221926652 H 0.0 **** 0.06
11358 H 43.03678747793588 10.995174070861264 81.309512197841 H 0.0 **** 0.06
11359 H 42.31460707723198 12.612676072836443 81.49303231508196 H 0.0 **** 0.06
11360 H 41.78069330585313 11.276317352663202 82.54096657239467 H 0.0 **** 0.06
11361 C 53.88058125196585 86.12621616053454 56.07739879588212 C 0.0 **** -0.24
11362 H 53.93300880106784 87.0459886603997 56.66012111502795 H 0.0 **** 0.06
11363 H 52.84436997300236 85.79302344198652 56.01886511664043 H 0.0 **** 0.06
11364 H 54.483597300034546 85.35616694755024 56.559142792101 H 0.0 **** 0.06
11365 H 54.26126913526218 86.31086040976135 55.07336713832791 H 0.0 **** 0.06
11366 C 101.50665344459611 7.543537489862459 14.65512545567023 C 0.0 **** -0.24
11367 H 100.42381425434559 7.652935997753559 14.707428376784605 H 0.0 **** 0.06
11368 H 101.87474898831476 8.00500392133381 13.73900222610689 H 0.0 **** 0.06
11369 H 101.7654195840318 6.483773572282473 14.657367121614527 H 0.0 **** 0.06
11370 H 101.96350538472893 8.03037968979622 15.516776992446239 H 0.0 **** 0.06
11371 C 22.114247874851145 65.40253888774748 16.172131699280925 C 0.0 **** -0.24
11372 H 22.656947067511652 64.45833213793853 16.1160188512931 H 0.0 **** 0.06
11373 H 22.519163292856675 66.00650016538057 16.984555668824157 H 0.0 **** 0.06
11374 H 21.05862895781877 65.20411063172847 16.356371470278464 H 0.0 **** 0.06
11375 H 22.22431578733226 65.94100475974327 15.230744978264024 H 0.0 **** 0.06
11376 C 55.67345872600152 110.07771974353744 103.03721834551123 C 0.0 **** -0.24
11377 H 56.420743974848676 110.22665216336713 102.25891173303296 H 0.0 **** 0.06
11378 H 55.51429214683452 109.00983487979998 103.1882525517498 H 0.0 **** 0.06
11379 H 54.736837518682854 110.54692773300248 102.73632474669046 H 0.0 **** 0.06
11380 H 56.02295810303368 110.52787367780934 103.96734366706224 H 0.0 **** 0.06
11381 C 3.435407183169545 6.979675886658413 19.090377313400154 C 0.0 **** -0.24
11382 H 2.737145597456731 7.229232024719352 18.292379318983023 H 0.0 **** 0.06
11383 H 3.046635997285051 6.137667091607398 19.66306793095751 H 0.0 **** 0.06
11384 H 3.5577174315314863 7.840452285364506 19.74799163688536 H 0.0 **** 0.06
11385 H 4.400336101607124 6.712477475429296 18.659370829187083 H 0.0 **** 0.06
11386 C 93.31280521116574 41.285582890859615 1.4717318778213055 C 0.0 **** -0.24
11387 H 94.0417219496708 41.67321246172952 0.7597177496923706 H 0.0 **** 0.06
11388 H 92.30786650419637 41.548850316430986 1.142555910786399 H 0.0 **** 0.06
11389 H 93.49956453607408 41.71914403976558 2.4543381517480913 H 0.0 **** 0.06
11390 H 93.40469131055673 40.20012350552369 1.5299759171345686 H 0.0 **** 0.06
11391 C 69.13233314564272 80.94139224145036 99.86103895313045 C 0.0 **** -0.24
11392 H 69.57723129909257 81.30392228215709 98.93504817581359 H 0.0 **** 0.06
11393 H 68.59402025321347 80.01341608906921 99.66699796052018 H 0.0 **** 0.06
11394 H 68.43981796907954 81.69000123965637 100.24734938736975 H 0.0 **** 0.06
11395 H 69.91726380424305 80.75917698857194 100.5944384356383 H 0.0 **** 0.06
11396 C 110.65516966929597 33.70772896301554 53.78529463603254 C 0.0 **** -0.24
11397 H 110.76327616741769 34.755264756807605 54.06776264381023 H 0.0 **** 0.06
11398 H 111.61408164952417 33.20102249815892 53.89781045231459 H 0.0 **** 0.06
11399 H 110.32992907338355 33.64349377894462 52.74682951972417 H 0.0 **** 0.06
11400 H 109.91415928479351 33.23344327980203 54.428489062340674 H 0.0 **** 0.06
11401 C 102.42397388813697 82.52268203445149 59.43703492096407 C 0.0 **** -0.24
11402 H 102.14804205158279 82.94506892005103 58.4709871411693 H 0.0 **** 0.06
11403 H 103.1524555683419 81.72523556568186 59.290072454543406 H 0.0 **** 0.06
11404 H 101.53656817224388 82.11979649930649 59.92357643140923 H 0.0 **** 0.06
11405 H 102.8591743206459 83.3023586228114 60.06213122337556 H 0.0 **** 0.06
11406 C 7.376632338904187 76.21657752733 33.91588446103862 C 0.0 **** -0.24
11407 H 7.183667668334181 75.72864996497015 34.871603956430505 H 0.0 **** 0.06
11408 H 7.803752621627098 77.20350303369466 34.092889208522 H 0.0 **** 0.06
11409 H 6.442873030280509 76.3169911588167 33.364414667886095 H 0.0 **** 0.06
11410 H 8.078768335408313 75.61582031507675 33.33703365695851 H 0.0 **** 0.06
11411 C 20.000490865366913 102.53424911744415 6.950058165560106 C 0.0 **** -0.24
11412 H 20.86872850070523 101.88155903814106 6.865699445145877 H 0.0 **** 0.06
11413 H 19.574664080599206 102.70235157745381 5.960484245106228 H 0.0 **** 0.06
11414 H 20.3027891753149 103.4875738418142 7.382066290471526 H 0.0 **** 0.06
11415 H 19.25487117033984 102.06511915560131 7.592111705520258 H 0.0 **** 0.06
11416 C 102.06678618102842 84.99561351548567 49.00646776871521 C 0.0 **** -0.24
11417 H 102.5667501322427 84.93157948511907 49.97268361093785 H 0.0 **** 0.06
11418 H 102.21564873191105 85.9910159278813 48.585881904972325 H 0.0 **** 0.06
11419 H 101.00082984458768 84.81147642909949 49.13581591804212 H 0.0 **** 0.06
11420 H 102.48528946620002 84.24979641544812 48.33115213459913 H 0.0 **** 0.06
11421 C 15.069697847680743 71.117913017255 47.21865732825559 C 0.0 **** -0.24
11422 H 14.926674751450179 71.28918307199723 46.15220606563267 H 0.0 **** 0.06
11423 H 15.001392311968658 70.05110657567761 47.428496991732004 H 0.0 **** 0.06
11424 H 14.298781112420642 71.6492590975181 47.77820376287747 H 0.0 **** 0.06
11425 H 16.051867461987683 71.48548993674927 47.517311803493584 H 0.0 **** 0.06
11426 C 48.234867449879104 13.180731847877084 42.74167520708854 C 0.0 **** -0.24
11427 H 47.50105413221917 12.661498682462337 43.35787996764132 H 0.0 **** 0.06
11428 H 48.36826446198954 14.196247393672792 43.11457305378212 H 0.0 **** 0.06
11429 H 47.88483989603847 13.214215370570201 41.71024274666619 H 0.0 **** 0.06
11430 H 49.18662147954165 12.649807327190132 42.78497525920202 H 0.0 **** 0.06
11431 C 94.26089210123712 70.5429469419876 19.901949817973655 C 0.0 **** -0.24
11432 H 94.75681655353137 70.16346190414708 20.795407393818728 H 0.0 **** 0.06
11433 H 93.26328305922536 70.1085765909674 19.827827888079902 H 0.0 **** 0.06
11434 H 94.84262371028123 70.27171737816951 19.021291418626312 H 0.0 **** 0.06
11435 H 94.18048687440196 71.62809593693439 19.964966016420167 H 0.0 **** 0.06
11436 C 84.77248559689795 65.2528168108293 69.5347368534114 C 0.0 **** -0.24
11437 H 83.99942800667827 65.44907811060727 68.79278013570269 H 0.0 **** 0.06
11438 H 85.11043692482966 64.22056373155027 69.44194199873937 H 0.0 **** 0.06
11439 H 84.36608923902821 65.4131553667462 70.53382543353206 H 0.0 **** 0.06
11440 H 85.61237983390367 65.92675497577915 69.37108688122976 H 0.0 **** 0.06
11441 C 10.468508973741251 35.472879585712995 74.945775486739 C 0.0 **** -0.24
11442 H 9.8629602575906 36.25967704281568 75.39599534698931 H 0.0 **** 0.06
11443 H 11.522900972510229 35.73958592733496 75.01804325052933 H 0.0 **** 0.06
11444 H 10.193325723146131 35.358639987317055 73.89711925015473 H 0.0 **** 0.06
11445 H 10.292653479123317 34.53431874728043 75.47111610992192 H 0.0 **** 0.06
11446 C 4.047921141518287 72.88312716373545 24.777720235360874 C 0.0 **** -0.24
11447 H 3.6257032169610284 71.90131390360517 24.98840970297391 H 0.0 **** 0.06
11448 H 3.6892386328942592 73.23309586503254 23.80946707289928 H 0.0 **** 0.06
11449 H 5.135855622898404 72.81429009887299 24.759569626996125 H 0.0 **** 0.06
11450 H 3.7412225658001574 73.58470921550452 25.553157511097197 H 0.0 **** 0.06
11451 C 45.66647005188892 68.22196770434272 68.037210038544 C 0.0 **** -0.24
11452 H 46.59308715895838 68.48434984158666 67.52572905562528 H 0.0 **** 0.06
11453 H 44.97179014378764 67.77791419654378 67.32341891858553 H 0.0 **** 0.06
11454 H 45.2226666097616 69.1206434042158 68.46548200225169 H 0.0 **** 0.06
11455 H 45.87939605560143 67.50726385829975 68.83164397006831 H 0.0 **** 0.06
11456 C 106.71847216364866 31.30105349141239 84.04809127124025 C 0.0 **** -0.24
11457 H 105.84766554970534 31.950917031582208 84.13694302268647 H 0.0 **** 0.06
11458 H 106.74285197609295 30.86063256780846 83.05099375230222 H 0.0 **** 0.06
11459 H 106.65816972129186 30.508649566105873 84.79415630003797 H 0.0 **** 0.06
11460 H 107.6246663646834 31.885277092296853 84.21061908510026 H 0.0 **** 0.06
11461 C 59.311133299609025 20.58313273523953 90.7218101416324 C 0.0 **** -0.24
11462 H 60.30705806384714 20.68343010108356 90.29116103696455 H 0.0 **** 0.06
11463 H 59.21715980073361 19.606084789836643 91.19651818163129 H 0.0 **** 0.06
11464 H 58.56283266811812 20.677668191760574 89.93497242233548 H 0.0 **** 0.06
11465 H 59.15682052060134 21.36496029956919 91.46614183648981 H 0.0 **** 0.06
11466 C 69.73647407884204 73.62750415130773 10.350134635707462 C 0.0 **** -0.24
11467 H 69.9428870509717 73.17296019101738 9.381300362551315 H 0.0 **** 0.06
11468 H 69.63298179885413 72.84658983818443 11.10394801529361 H 0.0 **** 0.06
11469 H 68.81136776775327 74.20210307642233 10.292751320674256 H 0.0 **** 0.06
11470 H 70.55901123785458 74.28971871239645 10.622738672550213 H 0.0 **** 0.06
11471 C 57.08116171054644 101.60800092902298 111.83637992233879 C 0.0 **** -0.24
11472 H 57.531227960149664 100.8281702255747 111.2216369979386 H 0.0 **** 0.06
11473 H 57.26668714230906 102.58132414881806 111.38193121790394 H 0.0 **** 0.06
11474 H 57.520927962609775 101.58160054738352 112.83386381078904 H 0.0 **** 0.06
11475 H 56.006971498724546 101.43953424224611 111.9089521045955 H 0.0 **** 0.06
11476 C 13.236433776628274 107.84225621798828 46.36483257946395 C 0.0 **** -0.24
11477 H 12.592075912629227 107.79719469383502 45.487069075545605 H 0.0 **** 0.06
11478 H 12.799478613933928 107.24505083391722 47.166147370759404 H 0.0 **** 0.06
11479 H 13.332901496809171 108.87694909956798 46.69220538043612 H 0.0 **** 0.06
11480 H 14.220616290563711 107.44691847501855 46.11246525597301 H 0.0 **** 0.06
11481 C 54.93673571958092 72.21246231285303 87.89834765157178 C 0.0 **** -0.24
11482 H 54.164572616952086 72.04563044580152 88.64970022457857 H 0.0 **** 0.06
11483 H 54.58924279609914 72.95527954019008 87.1798619792333 H 0.0 **** 0.06
11484 H 55.14746111142961 71.27691976564878 87.38092297111422 H 0.0 **** 0.06
11485 H 55.84433110810471 72.5719844179292 88.38337019101004 H 0.0 **** 0.06
11486 C 67.23050046154077 85.16975694366386 112.02349009607455 C 0.0 **** -0.24
11487 H 66.45259453614892 84.58897488546117 112.5170443938973 H 0.0 **** 0.06
11488 H 66.80192168070664 85.70513690193653 111.1755178144476 H 0.0 **** 0.06
11489 H 68.01569682916818 84.50039864883286 111.67157171755417 H 0.0 **** 0.06
11490 H 67.65202414223131 85.8861025673512 112.72916931798657 H 0.0 **** 0.06
11491 C 109.80106998106214 60.344178102024784 72.20891291657136 C 0.0 **** -0.24
11492 H 108.78262081077389 60.58150808798399 71.90109126812251 H 0.0 **** 0.06
11493 H 110.3904760911883 60.06884335147072 71.33342579957252 H 0.0 **** 0.06
11494 H 109.78346110762305 59.510138016339226 72.91149994712578 H 0.0 **** 0.06
11495 H 110.24748281838959 61.214829498174026 72.68966975137087 H 0.0 **** 0.06
11496 C 86.23973089219064 43.3381991627935 11.480187743263897 C 0.0 **** -0.24
11497 H 86.69255176506124 42.36224406868922 11.304357367962993 H 0.0 **** 0.06
11498 H 85.15531746409752 43.25383089988637 11.405985790665113 H 0.0 **** 0.06
11499 H 86.60138614136702 44.04521491850497 10.73323953910625 H 0.0 **** 0.06
11500 H 86.51114620544752 43.68973922292662 12.475246868695436 H 0.0 **** 0.06
11501 C 45.090317780577514 29.262832879072533 21.868444337529127 C 0.0 **** -0.24
11502 H 44.74883996084297 29.45469686994099 20.85087392680316 H 0.0 **** 0.06
11503 H 45.312450921539295 30.20979670540578 22.361134717102914 H 0.0 **** 0.06
11504 H 45.990080173331854 28.648161908786733 21.839398990723225 H 0.0 **** 0.06
11505 H 44.31030060696088 28.740245639278044 22.420532260387745 H 0.0 **** 0.06
11506 C 39.381550226675756 1.3221040261283363 64.34696528940668 C 0.0 **** -0.24
11507 H 39.571486330363086 0.27613470188265943 64.5885845393073 H 0.0 **** 0.06
11508 H 38.839037775043266 1.7916421044616317 65.1673497153268 H 0.0 **** 0.06
11509 H 38.78515365694881 1.382032888176452 63.43590594925746 H 0.0 **** 0.06
11510 H 40.32986237813009 1.8372581633914304 64.19515736281414 H 0.0 **** 0.06
11511 C 103.95311912478311 33.39609981537822 89.551113081139 C 0.0 **** -0.24
11512 H 103.01563494350074 32.85936262856799 89.694953153336 H 0.0 **** 0.06
11513 H 104.34220645557699 33.71257457816384 90.51847605323533 H 0.0 **** 0.06
11514 H 103.77891112808493 34.27011616960476 88.92451009116888 H 0.0 **** 0.06
11515 H 104.67550916078324 32.73906224023352 89.06543033908059 H 0.0 **** 0.06
11516 C 32.89302679173403 105.01658857353331 111.1361627106224 C 0.0 **** -0.24
11517 H 33.21262108723016 104.38009682690773 110.30984664305086 H 0.0 **** 0.06
11518 H 33.38182156086384 104.69115807011025 112.05425967148196 H 0.0 **** 0.06
11519 H 31.811442390882746 104.94287852054822 111.25339518315731 H 0.0 **** 0.06
11520 H 33.1657951107274 106.0505516796415 110.92449755198217 H 0.0 **** 0.06
11521 C 30.77434939878853 89.60317388214821 53.19432418633883 C 0.0 **** -0.24
11522 H 30.527246928684207 89.83242553849561 54.23092171660335 H 0.0 **** 0.06
11523 H 29.899110302837585 89.18430131805235 52.69729529962788 H 0.0 **** 0.06
11524 H 31.589263035714737 88.87996466502005 53.165297058644285 H 0.0 **** 0.06
11525 H 31.080186094823716 90.51668490424245 52.683849948924006 H 0.0 **** 0.06
11526 C 27.273139149990982 98.71070351329715 100.02591502494136 C 0.0 **** -0.24
11527 H 26.575184430788482 99.5083136634334 100.2841140858954 H 0.0 **** 0.06
11528 H 26.855700739094488 97.75082976711641 100.32979484635098 H 0.0 **** 0.06
11529 H 28.218966227068137 98.87624482805651 100.5425693094482 H 0.0 **** 0.06
11530 H 27.441622611298527 98.71014931372517 98.94928213806847 H 0.0 **** 0.06
11531 C 102.87767034856194 95.06409918420627 12.095540522706415 C 0.0 **** -0.24
11532 H 103.45235387957706 94.13778023245303 12.127344589541053 H 0.0 **** 0.06
11533 H 103.44414026167152 95.85844740281675 12.582286015042143 H 0.0 **** 0.06
11534 H 101.93031663718983 94.92103758368128 12.615897850498811 H 0.0 **** 0.06
11535 H 102.6862167174391 95.33648316019094 11.057851339671316 H 0.0 **** 0.06
11536 C 44.49138031546863 45.780385401666805 25.890014286900197 C 0.0 **** -0.24
11537 H 45.081089197073254 46.66277502809757 26.13852057054862 H 0.0 **** 0.06
11538 H 44.293791364052254 45.20779759413554 26.797061852073227 H 0.0 **** 0.06
11539 H 45.04347554102645 45.161400346434874 25.18306256858736 H 0.0 **** 0.06
11540 H 43.546523109555324 46.088850187495865 25.44167984498131 H 0.0 **** 0.06
11541 C 109.52947930331558 34.78111689728155 38.636426541359995 C 0.0 **** -0.24
11542 H 109.17183827291296 33.75193887475692 38.58529951079972 H 0.0 **** 0.06
11543 H 109.92875639373187 34.976673961094576 39.63269997269399 H 0.0 **** 0.06
11544 H 108.70363574568859 35.46295696924673 38.43456049678955 H 0.0 **** 0.06
11545 H 110.31365886469733 34.92984103054991 37.89505830836087 H 0.0 **** 0.06
11546 C 75.8070797354377 56.45390000021989 83.71802734149082 C 0.0 **** -0.24
11547 H 75.64171537266745 57.35793943666121 84.30480648412362 H 0.0 **** 0.06
11548 H 76.64637425781174 55.897778422734106 84.1377403200058 H 0.0 **** 0.06
11549 H 76.03137384916604 56.72697299252514 82.68679279322387 H 0.0 **** 0.06
11550 H 74.91103801781145 55.83431176100288 83.74427630123836 H 0.0 **** 0.06
11551 C 67.12722906490927 99.60806175075624 99.18782566564963 C 0.0 **** -0.24
11552 H 67.77527007827723 99.4509412743451 100.05051473738203 H 0.0 **** 0.06
11553 H 67.73732015735911 99.83215530548364 98.31197384645174 H 0.0 **** 0.06
11554 H 66.45450984415126 100.4428034343182 99.38516692335989 H 0.0 **** 0.06
11555 H 66.54362188850999 98.7063617843666 99.00278725760825 H 0.0 **** 0.06
11556 C 53.555989304961244 102.2692076065689 33.56437069299092 C 0.0 **** -0.24
11557 H 53.162485929705966 101.56174437862757 34.29353953763727 H 0.0 **** 0.06
11558 H 54.24047379577198 101.75439575773112 32.890810686354556 H 0.0 **** 0.06
11559 H 54.08784656297784 103.0670728385592 34.08330744777954 H 0.0 **** 0.06
11560 H 52.73194607088655 102.69539992321108 32.99099618755163 H 0.0 **** 0.06
11561 C 33.726930478306514 50.36575876388581 53.772549224906626 C 0.0 **** -0.24
11562 H 32.68821280941387 50.03456247097115 53.7899001996917 H 0.0 **** 0.06
11563 H 34.285909136099974 49.76934224815854 53.04980187797948 H 0.0 **** 0.06
11564 H 34.16442113729241 50.241494969274186 54.762585971959965 H 0.0 **** 0.06
11565 H 33.76803811418338 51.416880070476246 53.4854332193268 H 0.0 **** 0.06
11566 C 48.44270900699513 107.79045032221622 100.01279998013521 C 0.0 **** -0.24
11567 H 47.82435245555834 107.9294062698188 99.12596357331901 H 0.0 **** 0.06
11568 H 47.80871235659143 107.52391815082851 100.8583236209569 H 0.0 **** 0.06
11569 H 48.9744788385787 108.71501438642836 100.23352928481455 H 0.0 **** 0.06
11570 H 49.161510267877006 106.99145708262257 99.83204069394208 H 0.0 **** 0.06
11571 C 48.16739274929279 14.192793838846967 76.96646498917491 C 0.0 **** -0.24
11572 H 47.48133060794703 13.381488536309632 76.72121636549369 H 0.0 **** 0.06
11573 H 47.61405764413084 15.006280907155826 77.43732327834633 H 0.0 **** 0.06
11574 H 48.64061549723132 14.555431177483513 76.05352039766902 H 0.0 **** 0.06
11575 H 48.931816686126496 13.828431125014106 77.6524855617865 H 0.0 **** 0.06
11576 C 111.08522910733569 85.70760109165917 51.278288674786786 C 0.0 **** -0.24
11577 H 112.04776995126709 86.21223530962118 51.18550983620127 H 0.0 **** 0.06
11578 H 111.15977995157614 84.70431179233049 50.86012832163729 H 0.0 **** 0.06
11579 H 110.32595946239222 86.27307177430896 50.73775845262915 H 0.0 **** 0.06
11580 H 110.80967182856429 85.64386592055928 52.33130170655443 H 0.0 **** 0.06
11581 C 82.43337215760724 7.265133475592059 38.03405120816953 C 0.0 **** -0.24
11582 H 81.85227251449157 6.9324261356508625 37.173424416735685 H 0.0 **** 0.06
11583 H 81.85102501825563 7.116517068916233 38.944428311555924 H 0.0 **** 0.06
11584 H 82.67207010643122 8.323537824332332 37.92437451423733 H 0.0 **** 0.06
11585 H 83.35690218910753 6.68876369727119 38.09388082080764 H 0.0 **** 0.06
11586 C 73.34926815802243 22.858841642470935 32.098597418341285 C 0.0 **** -0.24
11587 H 73.3909478192254 23.94761930929755 32.08554579921065 H 0.0 **** 0.06
11588 H 74.33054899803244 22.454683940592105 31.849435085578023 H 0.0 **** 0.06
11589 H 72.61698777478395 22.514982632309824 31.368206562573107 H 0.0 **** 0.06
11590 H 73.05834306691816 22.518670079652225 33.09246425560724 H 0.0 **** 0.06
11591 C 57.384476281880126 91.63000577465223 82.92781130763925 C 0.0 **** -0.24
11592 H 56.42132196499787 92.02216899093042 83.25437395600866 H 0.0 **** 0.06
11593 H 57.40477683222477 91.57890390351184 81.83822377261185 H 0.0 **** 0.06
11594 H 57.528688578501146 90.63232216611613 83.34099111297829 H 0.0 **** 0.06
11595 H 58.18055104020365 92.28680041850978 83.27581713807484 H 0.0 **** 0.06
11596 C 34.96281207779879 96.4543059285858 56.04922238855954 C 0.0 **** -0.24
11597 H 36.00054892056184 96.52947156457813 56.3738279206828 H 0.0 **** 0.06
11598 H 34.857078854513475 95.61523506662681 55.36158806610308 H 0.0 **** 0.06
11599 H 34.67188331948222 97.37615526374898 55.54627546215727 H 0.0 **** 0.06
11600 H 34.322367745552384 96.29695812266735 56.917000071605315 H 0.0 **** 0.06
11601 C 41.482440990085365 46.82353320057581 109.33067187198888 C 0.0 **** -0.24
11602 H 40.800401996918396 47.0270927172115 108.50555207044101 H 0.0 **** 0.06
11603 H 42.14923047152689 46.00531056139326 109.05792123162752 H 0.0 **** 0.06
11604 H 40.90885570199973 46.54562926566551 110.2158875566478 H 0.0 **** 0.06
11605 H 42.07050184170009 47.715649778409 109.54442124595079 H 0.0 **** 0.06
11606 C 21.165803791657822 75.123474325655 63.49498044692913 C 0.0 **** -0.24
11607 H 20.67658206775633 74.38372831889453 64.1288781959901 H 0.0 **** 0.06
11608 H 22.144432058320632 74.75120153440645 63.191151377862205 H 0.0 **** 0.06
11609 H 21.285820787832478 76.05494737664071 64.04829976850218 H 0.0 **** 0.06
11610 H 20.555279276302798 75.3023153406912 62.61022055611024 H 0.0 **** 0.06
11611 C 91.60416065931264 30.886534236906016 22.644252428858636 C 0.0 **** -0.24
11612 H 90.52986207296522 31.00758336251039 22.509917127051608 H 0.0 **** 0.06
11613 H 91.92680147145035 31.449458248775045 23.520830391603113 H 0.0 **** 0.06
11614 H 92.12439112834761 31.259122849632377 21.76175235301352 H 0.0 **** 0.06
11615 H 91.83626150954814 29.831171213902678 22.784178930473388 H 0.0 **** 0.06
11616 C 23.846461656648604 40.990042813064804 15.315972850130876 C 0.0 **** -0.24
11617 H 24.283481928845138 41.11755159425468 16.30594312030003 H 0.0 **** 0.06
11618 H 23.18023007979144 41.826744899565426 15.102807265916837 H 0.0 **** 0.06
11619 H 23.28130843929345 40.05794888459195 15.285196264551402 H 0.0 **** 0.06
11620 H 24.63989072747784 40.95796073620812 14.568487393976767 H 0.0 **** 0.06
11621 C 82.48283849665864 11.074440548563473 44.39334584306222 C 0.0 **** -0.24
11622 H 81.93010285752615 11.344824847896703 45.292881843369074 H 0.0 **** 0.06
11623 H 82.66256406605359 9.99913850698374 44.38581863645428 H 0.0 **** 0.06
11624 H 83.43573316059334 11.602942684770099 44.38107370035667 H 0.0 **** 0.06
11625 H 81.90238467888574 11.3521501942501 43.513648680812324 H 0.0 **** 0.06
11626 C 50.30439473010137 49.54742197136852 41.760384359858136 C 0.0 **** -0.24
11627 H 49.38782444061561 48.95730977813122 41.71862306736031 H 0.0 **** 0.06
11628 H 51.135428379149005 48.95346799705652 41.380490797912216 H 0.0 **** 0.06
11629 H 50.50323287315604 49.83441660559504 42.793092391545656 H 0.0 **** 0.06
11630 H 50.187181138577515 50.44317354995576 41.15072916602858 H 0.0 **** 0.06
11631 C 56.455431185341354 63.96673575394166 44.27191034628862 C 0.0 **** -0.24
11632 H 56.86714430098027 63.3404065935091 45.06377114510602 H 0.0 **** 0.06
11633 H 55.9341109093279 64.8157712171753 44.71467707308443 H 0.0 **** 0.06
11634 H 55.75520482119816 63.38193655112167 43.67399863237429 H 0.0 **** 0.06
11635 H 57.263390931506024 64.32691566052497 43.636105503627505 H 0.0 **** 0.06
11636 C 99.09258351475967 66.37460686281872 20.463594265189247 C 0.0 **** -0.24
11637 H 99.42170047368793 67.41242216194098 20.516790392528215 H 0.0 **** 0.06
11638 H 98.7559657439418 66.15157621462475 19.45105379349877 H 0.0 **** 0.06
11639 H 98.27085193666159 66.21704436362859 21.162556132002603 H 0.0 **** 0.06
11640 H 99.92181590474723 65.71738471108006 20.723976742727462 H 0.0 **** 0.06
11641 C 44.3476444011705 86.71081145994552 83.63033642808693 C 0.0 **** -0.24
11642 H 45.10253567957474 86.86889629694042 84.40063555053084 H 0.0 **** 0.06
11643 H 44.22048277799749 87.626727435883 83.05368037109753 H 0.0 **** 0.06
11644 H 43.40088755933394 86.442861982746 84.10069376283363 H 0.0 **** 0.06
11645 H 44.66652493791206 85.90567389571137 82.96952101445166 H 0.0 **** 0.06
11646 C 103.54312894369369 35.48100272339701 80.96187532922096 C 0.0 **** -0.24
11647 H 104.27363991472347 35.855862667334804 80.24561065591516 H 0.0 **** 0.06
11648 H 103.15404756371848 34.52376536718191 80.61677007192148 H 0.0 **** 0.06
11649 H 102.72437677957834 36.19581433152524 81.05109256181967 H 0.0 **** 0.06
11650 H 104.01960488690224 35.35190947704132 81.93367880660014 H 0.0 **** 0.06
11651 C 84.822217417654 11.124798973590103 34.02375859183877 C 0.0 **** -0.24
11652 H 85.7797685537657 10.605986005178863 33.98356790088735 H 0.0 **** 0.06
11653 H 84.32803527749513 11.049445240346188 33.05463461976019 H 0.0 **** 0.06
11654 H 84.98715740011639 12.174595238401537 34.26632815942885 H 0.0 **** 0.06
11655 H 84.19416978144324 10.669592404722394 34.78917971993327 H 0.0 **** 0.06
11656 C 101.70994651910715 7.3736804299291805 88.67980829135016 C 0.0 **** -0.24
11657 H 101.67493126194887 8.41992156959003 88.98397899033233 H 0.0 **** 0.06
11658 H 101.23813957614854 6.7578946055134566 89.44553828204522 H 0.0 **** 0.06
11659 H 102.74829471806788 7.0665467175050765 88.55423242000722 H 0.0 **** 0.06
11660 H 101.17796526380548 7.2527493945861465 87.73576323905246 H 0.0 **** 0.06
11661 C 30.06294904663254 8.663230812973381 99.38168146546286 C 0.0 **** -0.24
11662 H 29.079772065419206 8.282923698845536 99.10196376449838 H 0.0 **** 0.06
11663 H 30.310732414752863 9.521720927544607 98.75801210309359 H 0.0 **** 0.06
11664 H 30.80855042142673 7.881558853453328 99.23848618069175 H 0.0 **** 0.06
11665 H 30.049529538274896 8.966041146453051 100.42873791763986 H 0.0 **** 0.06
11666 C 48.202861373511666 98.32058502260566 57.05069348078263 C 0.0 **** -0.24
11667 H 47.49338298310488 98.06547077543516 57.8379758525337 H 0.0 **** 0.06
11668 H 49.14948195285775 98.62349381177589 57.499260296334285 H 0.0 **** 0.06
11669 H 47.803499557067326 99.14108604476837 56.45480373885323 H 0.0 **** 0.06
11670 H 48.36476742896308 97.45259540795345 56.4120787215852 H 0.0 **** 0.06
11671 C 71.65178786543623 90.74121792909833 59.51678442923026 C 0.0 **** -0.24
11672 H 71.69202816244243 90.28516941381685 60.505548208777476 H 0.0 **** 0.06
11673 H 70.63550899226732 90.67004500637518 59.125442860846356 H 0.0 **** 0.06
11674 H 72.33616921879334 90.2192337625064 58.8479884330855 H 0.0 **** 0.06
11675 H 71.94130540920304 91.78977453062927 59.58812902089185 H 0.0 **** 0.06
11676 C 76.16414916451475 106.75885340107382 40.29019427235326 C 0.0 **** -0.24
11677 H 75.91446007144029 105.90633905719892 40.92239367098725 H 0.0 **** 0.06
11678 H 76.80405769715881 106.4290634753046 39.47130715856136 H 0.0 **** 0.06
11679 H 76.68900875920662 107.50932358749803 40.88194872955165 H 0.0 **** 0.06
11680 H 75.24907013025316 107.19068748429396 39.885127530312644 H 0.0 **** 0.06
11681 C 38.60582416492804 19.411486187898447 47.45474417062411 C 0.0 **** -0.24
11682 H 38.125083303761045 18.43291197803333 47.418726973943706 H 0.0 **** 0.06
11683 H 38.817290605752106 19.67381585886477 48.49185532010199 H 0.0 **** 0.06
11684 H 37.94202985211132 20.15825488989657 47.01825585951872 H 0.0 **** 0.06
11685 H 39.536964154220556 19.378949190833424 46.88966009365981 H 0.0 **** 0.06
11686 C 52.58104774214074 40.76678129060417 10.295720194765465 C 0.0 **** -0.24
11687 H 53.15320500504972 40.09659890791659 9.654904327060706 H 0.0 **** 0.06
11688 H 52.247813488087196 40.22629781970056 11.182389248041488 H 0.0 **** 0.06
11689 H 51.71327943775293 41.13883666353496 9.749103802659704 H 0.0 **** 0.06
11690 H 53.2087802231987 41.60618385050799 10.594712938638793 H 0.0 **** 0.06
11691 C 99.2312817181705 29.062949822481656 68.85520120600864 C 0.0 **** -0.24
11692 H 99.45374162025149 30.127565048651583 68.94018659364053 H 0.0 **** 0.06
11693 H 98.22961138349717 28.93385522532796 68.44556783500394 H 0.0 **** 0.06
11694 H 99.2846644821366 28.601946064214395 69.84154354677207 H 0.0 **** 0.06
11695 H 99.95860651145881 28.592251615246056 68.19392802674892 H 0.0 **** 0.06
11696 C 1.393486063899843 15.982183292745045 112.35158111438788 C 0.0 **** -0.24
11697 H 2.174057126869286 16.580672701819953 111.8803818864722 H 0.0 **** 0.06
11698 H 0.6644219711945425 16.642943663742873 112.82243965946358 H 0.0 **** 0.06
11699 H 1.8383650857172995 15.333804031209848 113.10581206468554 H 0.0 **** 0.06
11700 H 0.8966613851643217 15.37377861742615 111.59576011171393 H 0.0 **** 0.06
11701 C 101.77740996183269 68.85977800458426 1.17805695696444 C 0.0 **** -0.24
11702 H 101.14519434697581 69.48798418337537 0.551858338279203 H 0.0 **** 0.06
11703 H 102.75044063711303 68.73347576407124 0.7010029091134129 H 0.0 **** 0.06
11704 H 101.30723312591232 67.88471601813401 1.3065842623510093 H 0.0 **** 0.06
11705 H 101.90890007088123 69.33141859495956 2.1517015906206325 H 0.0 **** 0.06
11706 C 66.63546898824015 26.437741243797603 39.21670818659932 C 0.0 **** -0.24
11707 H 66.40476269688295 26.163099764063475 38.18779856501134 H 0.0 **** 0.06
11708 H 67.65965331595942 26.146286802350602 39.449987361334195 H 0.0 **** 0.06
11709 H 65.94917917199726 25.92549872522474 39.89188397481314 H 0.0 **** 0.06
11710 H 66.52702745610387 27.514935941628295 39.337511031354325 H 0.0 **** 0.06
11711 C 97.61948375750745 49.44717124913706 68.82983691987431 C 0.0 **** -0.24
11712 H 97.43353369450688 49.91339295020384 69.79822391927291 H 0.0 **** 0.06
11713 H 97.96866171182353 48.425136572292104 68.98043680452724 H 0.0 **** 0.06
11714 H 98.37815465027944 50.01628003296858 68.29296539394738 H 0.0 **** 0.06
11715 H 96.69568319704848 49.43432341710499 68.2499981984426 H 0.0 **** 0.06
11716 C 70.88437756743997 11.682448015639498 99.94420308631913 C 0.0 **** -0.24
11717 H 71.48799477565603 10.816883436686112 99.66985539424735 H 0.0 **** 0.06
11718 H 70.4894868291193 11.544228129064983 100.95138779365897 H 0.0 **** 0.06
11719 H 70.05893840133058 11.786143122294678 99.24019607187148 H 0.0 **** 0.06
11720 H 71.5026254164805 12.57977396122963 99.91528694570962 H 0.0 **** 0.06
11721 C 105.77493619971588 74.88952907852695 10.293896430227917 C 0.0 **** -0.24
11722 H 105.97923022978864 75.7025029130605 9.597194283878991 H 0.0 **** 0.06
11723 H 104.79994647317378 75.04411857345812 10.75734715923953 H 0.0 **** 0.06
11724 H 106.54459677565524 74.86880991810767 11.064819026007399 H 0.0 **** 0.06
11725 H 105.7750839399626 73.94110523147509 9.754576763396187 H 0.0 **** 0.06
11726 C 102.35919070655282 35.00483322952589 95.09105467102353 C 0.0 **** -0.24
11727 H 101.7398007899913 34.183765023256214 94.72878464108587 H 0.0 **** 0.06
11728 H 102.10699123586531 35.91645701641389 94.54673946004795 H 0.0 **** 0.06
11729 H 103.4101677799706 34.76525292394893 94.93179132482874 H 0.0 **** 0.06
11730 H 102.17716747116654 35.155214297674505 96.1546196190171 H 0.0 **** 0.06
11731 C 29.135000743159736 7.586963748942708 80.46578698815512 C 0.0 **** -0.24
11732 H 29.86275678598247 7.777817645809762 81.25421726263662 H 0.0 **** 0.06
11733 H 29.598234006790108 6.9888432915524845 79.6813921745607 H 0.0 **** 0.06
11734 H 28.795312185419448 8.53472819840266 80.04781015166128 H 0.0 **** 0.06
11735 H 28.282911920613145 7.046983511860134 80.88006157977875 H 0.0 **** 0.06
11736 C 44.92849238706307 88.84688602407275 23.000300018820298 C 0.0 **** -0.24
11737 H 45.622819876741346 88.03606219499855 22.77747608406142 H 0.0 **** 0.06
11738 H 44.162523482417384 88.48925661952492 23.688702705244452 H 0.0 **** 0.06
11739 H 44.45919529220535 89.18655404429333 22.076950536027596 H 0.0 **** 0.06
11740 H 45.47195938606467 89.67389713313057 23.45739261758618 H 0.0 **** 0.06
11741 C 80.94747781139898 102.19642269437222 5.229372818192417 C 0.0 **** -0.24
11742 H 81.99465680056767 102.17210630212662 4.927940796559653 H 0.0 **** 0.06
11743 H 80.37731677459496 101.49532859967266 4.618415411065143 H 0.0 **** 0.06
11744 H 80.55311791023283 103.20349504360152 5.089791287968239 H 0.0 **** 0.06
11745 H 80.8646705897433 101.91496953065729 6.278907687394792 H 0.0 **** 0.06
11746 C 1.040783508553801 65.61228304015987 38.97758727721521 C 0.0 **** -0.24
11747 H 0.2963118462341754 65.24956710443115 39.686284307569025 H 0.0 **** 0.06
11748 H 1.6249145570645425 64.77229812759361 38.603411409261355 H 0.0 **** 0.06
11749 H 1.701456643478224 66.32143476840233 39.47612134280149 H 0.0 **** 0.06
11750 H 0.5402300620726379 66.10649605328464 38.14524653834387 H 0.0 **** 0.06
11751 C 23.099897455715563 59.76947073210704 79.13487050726377 C 0.0 **** -0.24
11752 H 23.456733325337837 60.50549839415163 78.41424033297488 H 0.0 **** 0.06
11753 H 22.170621392012094 60.12120864472547 79.58228059980843 H 0.0 **** 0.06
11754 H 23.8503045658278 59.632053110254276 79.9141015500189 H 0.0 **** 0.06
11755 H 22.92378215306519 58.821216622305656 78.62842618366355 H 0.0 **** 0.06
11756 C 35.431874093190004 95.52318286653605 5.884187681938442 C 0.0 **** -0.24
11757 H 35.675686485059856 96.49619036659675 5.4575586655167285 H 0.0 **** 0.06
11758 H 36.19210251465361 94.79774165155607 5.593335106747816 H 0.0 **** 0.06
11759 H 34.4592825801212 95.19807250932098 5.5143412112187775 H 0.0 **** 0.06
11760 H 35.399813595607924 95.60071806518374 6.970724279915885 H 0.0 **** 0.06
11761 C 2.0660201381660546 2.549389958633398 52.02874017625469 C 0.0 **** -0.24
11762 H 2.354081540401838 2.9700756912242383 52.99216351767328 H 0.0 **** 0.06
11763 H 1.0882393484331017 2.9347726184381457 51.74095330650232 H 0.0 **** 0.06
11764 H 2.0212091470575952 1.4626991741165796 52.10646116079603 H 0.0 **** 0.06
11765 H 2.8027395752100634 2.8299395828698977 51.27583328814244 H 0.0 **** 0.06
11766 C 48.96078072247249 80.11054202105143 84.34035563012506 C 0.0 **** -0.24
11767 H 48.634070338938784 80.3017762862458 85.3624897548249 H 0.0 **** 0.06
11768 H 49.002640339092466 81.05048595714109 83.79064796163149 H 0.0 **** 0.06
11769 H 48.25626105011048 79.43598393165183 83.85438055509198 H 0.0 **** 0.06
11770 H 49.95063362218497 79.65293497548214 84.35479492693841 H 0.0 **** 0.06
11771 C 106.71869270362536 59.528585850692735 16.951901822747374 C 0.0 **** -0.24
11772 H 106.8003471737965 60.1722682670713 16.076373495169122 H 0.0 **** 0.06
11773 H 107.04199108405318 58.520318485839226 16.69305153907655 H 0.0 **** 0.06
11774 H 105.68288862553257 59.50359670179404 17.288522932714386 H 0.0 **** 0.06
11775 H 107.35117912565354 59.91958179429366 17.74910725903419 H 0.0 **** 0.06
11776 C 53.324540570075186 48.77001836080768 5.803640198407493 C 0.0 **** -0.24
11777 H 52.92111163016763 49.66515838023372 5.330895243238757 H 0.0 **** 0.06
11778 H 54.20055259220754 48.430879586748745 5.250202529911007 H 0.0 **** 0.06
11779 H 52.56769484323523 47.98555297548944 5.803622470733671 H 0.0 **** 0.06
11780 H 53.60971782854441 48.99911328733094 6.830715594457274 H 0.0 **** 0.06
11781 C 69.96165613500952 52.722511655781744 48.234073847917614 C 0.0 **** -0.24
11782 H 69.08377401992885 52.40612277163417 47.672353851884395 H 0.0 **** 0.06
11783 H 70.52920047128151 51.845554148640886 48.546975432328054 H 0.0 **** 0.06
11784 H 69.64740864006691 53.28482027345518 49.11299129708135 H 0.0 **** 0.06
11785 H 70.58763771834074 53.35452841094835 47.60367135552116 H 0.0 **** 0.06
11786 C 44.30328430808299 79.66210705344554 9.942376203411385 C 0.0 **** -0.24
11787 H 45.152811045695955 78.97959951075069 9.927009165178518 H 0.0 **** 0.06
11788 H 43.37835347445332 79.0914438323301 9.854257663633206 H 0.0 **** 0.06
11789 H 44.38115887938852 80.35915793914424 9.108744429416731 H 0.0 **** 0.06
11790 H 44.29962362642624 80.21664556653283 10.880936827326138 H 0.0 **** 0.06
11791 C 108.39824714286742 94.32320710521088 108.53112013378558 C 0.0 **** -0.24
11792 H 109.01496523425546 93.47707903980611 108.83483958663675 H 0.0 **** 0.06
11793 H 108.98735517991717 94.9959943312854 107.90802587971777 H 0.0 **** 0.06
11794 H 108.05140030277592 94.85605474233941 109.41670585910418 H 0.0 **** 0.06
11795 H 107.5386392827414 93.96197960744686 107.96571190267622 H 0.0 **** 0.06
11796 C 65.01465307362807 50.00107574000617 73.9692370278419 C 0.0 **** -0.24
11797 H 64.62916920253522 50.44673727301142 73.05169660421996 H 0.0 **** 0.06
11798 H 64.22045422566717 49.96032858672754 74.71503946764378 H 0.0 **** 0.06
11799 H 65.83919855133931 50.6064035332613 74.34732362174333 H 0.0 **** 0.06
11800 H 65.37064731489102 48.991810344827286 73.76037606626218 H 0.0 **** 0.06
11801 C 51.66245087094695 100.71659328489653 100.02976369382003 C 0.0 **** -0.24
11802 H 51.0605348460069 101.5922623593768 99.78808389135085 H 0.0 **** 0.06
11803 H 51.10748007992937 99.81382757253323 99.7738224875568 H 0.0 **** 0.06
11804 H 51.888477037587634 100.71395820782664 101.09572878559257 H 0.0 **** 0.06
11805 H 52.59174465271309 100.74569858191373 99.46102884637585 H 0.0 **** 0.06
11806 C 56.99342634697297 76.77593704678824 87.72512600395356 C 0.0 **** -0.24
11807 H 57.63741718785212 77.47022319596917 87.1858710563865 H 0.0 **** 0.06
11808 H 57.50528627532441 75.82103124241908 87.84149897215138 H 0.0 **** 0.06
11809 H 56.0690915653791 76.6289700287058 87.16575819892671 H 0.0 **** 0.06
11810 H 56.7610289245664 77.18633919921348 88.70851452322253 H 0.0 **** 0.06
11811 C 103.46341178890626 81.69398951598035 24.418045943079704 C 0.0 **** -0.24
11812 H 103.7870038170424 81.02203953891242 25.212460679318895 H 0.0 **** 0.06
11813 H 103.97684281603262 81.43447031562843 23.491156593042632 H 0.0 **** 0.06
11814 H 103.7037801654003 82.7212847469826 24.691494163746995 H 0.0 **** 0.06
11815 H 102.38700631718186 81.59771313578375 24.276163929802436 H 0.0 **** 0.06
11816 C 37.220053347164395 48.30544151364114 42.726871504773555 C 0.0 **** -0.24
11817 H 36.463906925696136 49.067260694501414 42.91465455558148 H 0.0 **** 0.06
11818 H 37.03534925665571 47.443316576313904 43.3690992518855 H 0.0 **** 0.06
11819 H 38.2075288249313 48.71295538042517 42.940808301979644 H 0.0 **** 0.06
11820 H 37.17287998431033 47.996811721485265 41.68210034933931 H 0.0 **** 0.06
11821 C 52.90241850617514 11.908718111579134 32.08074437586683 C 0.0 **** -0.24
11822 H 53.496191170524526 11.466978020320681 32.88096190971672 H 0.0 **** 0.06
11823 H 52.788664743677714 11.18668080491858 31.271813828871075 H 0.0 **** 0.06
11824 H 53.40424874156315 12.800208088695598 31.70522687050905 H 0.0 **** 0.06
11825 H 51.91912485144212 12.180069909470546 32.46640257171475 H 0.0 **** 0.06
11826 C 103.57964077692378 39.61582249061582 4.344585232816087 C 0.0 **** -0.24
11827 H 103.9525873620045 40.36432411144 5.043932483187717 H 0.0 **** 0.06
11828 H 104.114097793208 38.67845628431601 4.49624484258797 H 0.0 **** 0.06
11829 H 103.7365652831262 39.96318637792666 3.3237285430660677 H 0.0 **** 0.06
11830 H 102.51407561268562 39.45914990612654 4.514799861201624 H 0.0 **** 0.06
11831 C 36.71349203890097 8.414793750602755 21.32194211014894 C 0.0 **** -0.24
11832 H 37.124127762136084 9.389377150939415 21.586475483984486 H 0.0 **** 0.06
11833 H 36.649715634469004 7.793248643709804 22.21621486153765 H 0.0 **** 0.06
11834 H 37.36252099663113 7.933784184953865 20.590284000212364 H 0.0 **** 0.06
11835 H 35.71815436129336 8.543120124478152 20.89668379603353 H 0.0 **** 0.06
11836 C 65.91881284439293 9.398720732683401 21.634900366250918 C 0.0 **** -0.24
11837 H 65.6755471239228 8.398446027916194 21.993983540528802 H 0.0 **** 0.06
11838 H 65.3480145741311 10.136628735058892 22.199225222081623 H 0.0 **** 0.06
11839 H 65.6679713080243 9.476225961783712 20.577239823902403 H 0.0 **** 0.06
11840 H 66.98500618537136 9.581956414878036 21.769988714805265 H 0.0 **** 0.06
11841 C 62.89446829661438 37.82769270835365 90.58591440532052 C 0.0 **** -0.24
11842 H 63.04678496580061 37.351897840760614 91.55557793658409 H 0.0 **** 0.06
11843 H 63.8134846194601 37.765341104121376 90.00340462159772 H 0.0 **** 0.06
11844 H 62.627417111777305 38.87404526637218 90.73328932388029 H 0.0 **** 0.06
11845 H 62.09170235997351 37.3181711846251 90.05402626653759 H 0.0 **** 0.06
11846 C 49.81975709802535 44.255550531743054 31.49138874306996 C 0.0 **** -0.24
11847 H 50.04172592092344 43.40993070115212 30.840392325592035 H 0.0 **** 0.06
11848 H 48.8034450165319 44.160450469520185 31.87573391211083 H 0.0 **** 0.06
11849 H 49.90986392175913 45.18261754157848 30.92542417072457 H 0.0 **** 0.06
11850 H 50.523847103012066 44.26697838341019 32.32383700020904 H 0.0 **** 0.06
11851 C 21.07330218480061 108.80610689453496 71.38478157376204 C 0.0 **** -0.24
11852 H 20.390124089707513 107.96328490110918 71.48895526474459 H 0.0 **** 0.06
11853 H 22.10005268673177 108.43961362288215 71.35888677075127 H 0.0 **** 0.06
11854 H 20.949789926107343 109.4810654149573 72.23222724023 H 0.0 **** 0.06
11855 H 20.854288203746734 109.33965960795459 70.46086238682105 H 0.0 **** 0.06
11856 C 11.53501931188761 110.80911534512447 44.29767826078211 C 0.0 **** -0.24
11857 H 10.626965979756193 111.28483938061304 44.66837245862121 H 0.0 **** 0.06
11858 H 11.268470777316224 109.9849954417985 43.63579559357014 H 0.0 **** 0.06
11859 H 12.114065575114111 110.42715670851887 45.13875521489609 H 0.0 **** 0.06
11860 H 12.128660855155246 111.53935545553011 43.74894024166028 H 0.0 **** 0.06
11861 C 33.35043837838518 91.39880263488675 81.83843997710966 C 0.0 **** -0.24
11862 H 33.69068340410939 92.29449244454722 81.31957349269189 H 0.0 **** 0.06
11863 H 34.13981714462031 90.64691554581009 81.82110806086862 H 0.0 **** 0.06
11864 H 32.46321146379114 91.00567656471563 81.34263794733073 H 0.0 **** 0.06
11865 H 33.10969080791435 91.64811625506775 82.87195036639653 H 0.0 **** 0.06
11866 C 52.12395175146905 58.29232841311143 32.825887230238735 C 0.0 **** -0.24
11867 H 52.51635660598416 57.359739441478126 32.41864195759871 H 0.0 **** 0.06
11868 H 52.83039549713594 58.69799442284732 33.54973298925148 H 0.0 **** 0.06
11869 H 51.16978371077236 58.10059250856052 33.31746339414285 H 0.0 **** 0.06
11870 H 51.97868155616293 59.00788605429296 32.016693055807906 H 0.0 **** 0.06
11871 C 111.90712640746838 103.16208273416044 57.23172114864201 C 0.0 **** -0.24
11872 H 111.6660920156772 104.0907977386702 57.75078989366301 H 0.0 **** 0.06
11873 H 112.41762982392176 102.4851517852955 57.91707227591331 H 0.0 **** 0.06
11874 H 112.55652835095941 103.37913479684471 56.383745384870224 H 0.0 **** 0.06
11875 H 110.98803344660558 102.69605813347732 56.876707653626625 H 0.0 **** 0.06
11876 C 33.20425134914814 19.15918759966139 82.42958407712624 C 0.0 **** -0.24
11877 H 34.039233210822374 18.517044945990058 82.15052950607455 H 0.0 **** 0.06
11878 H 33.07941307635227 19.940616443981014 81.6796842285664 H 0.0 **** 0.06
11879 H 33.40573540349152 19.615756953415993 83.39977896325863 H 0.0 **** 0.06
11880 H 32.29288484568056 18.564455719859495 82.49025919602784 H 0.0 **** 0.06
11881 C 89.18962675224316 34.012463504969006 54.6512221137393 C 0.0 **** -0.24
11882 H 90.0845393175967 34.338633801214314 54.12204182150775 H 0.0 **** 0.06
11883 H 88.77455776048075 33.134283679016185 54.15641879223147 H 0.0 **** 0.06
11884 H 88.45111945404457 34.81442902870629 54.64605632493052 H 0.0 **** 0.06
11885 H 89.44676336924493 33.761717166429314 55.680163026270236 H 0.0 **** 0.06
11886 C 87.07685735637668 5.070387255038099 54.15798529826202 C 0.0 **** -0.24
11887 H 87.99500253032406 5.632692310845471 53.98568353753939 H 0.0 **** 0.06
11888 H 87.011863998568 4.251831386731681 53.4409528303043 H 0.0 **** 0.06
11889 H 86.21824152898043 5.730735986781838 54.03528722818817 H 0.0 **** 0.06
11890 H 87.08396151626349 4.667653104284227 55.17068866452132 H 0.0 **** 0.06
11891 C 16.18566755992067 92.90100369480001 104.31351372514771 C 0.0 **** -0.24
11892 H 15.390165109380444 92.58831156638507 103.63670584556047 H 0.0 **** 0.06
11893 H 15.815235766141235 93.68680987663788 104.97084716144332 H 0.0 **** 0.06
11894 H 17.02866611483988 93.27782819942715 103.73404057000349 H 0.0 **** 0.06
11895 H 16.509130060572414 92.04913670016577 104.91145938253445 H 0.0 **** 0.06
11896 C 43.54490973241698 7.547696356196234 57.35241329978376 C 0.0 **** -0.24
11897 H 43.1968811367438 6.746442418324769 56.70117404676907 H 0.0 **** 0.06
11898 H 44.1123721142709 7.121997609283463 58.18074806528415 H 0.0 **** 0.06
11899 H 42.68804325163691 8.097644020855467 57.74311889053021 H 0.0 **** 0.06
11900 H 44.18313332776481 8.225681950876426 56.78580094367291 H 0.0 **** 0.06
11901 C 79.51790453357142 54.4716994276414 110.98748309378806 C 0.0 **** -0.24
11902 H 79.77705774029016 54.60488113522683 112.03864565804469 H 0.0 **** 0.06
11903 H 79.09806821672089 55.399217647117155 110.59781935974684 H 0.0 **** 0.06
11904 H 78.78339636449542 53.67125645136758 110.89415985235792 H 0.0 **** 0.06
11905 H 80.41301015768707 54.21100313117179 110.42274266428018 H 0.0 **** 0.06
11906 C 109.34957494937424 86.29263517304813 66.26656397811001 C 0.0 **** -0.24
11907 H 108.74621792179748 85.90670108574102 67.08798746548652 H 0.0 **** 0.06
11908 H 108.76853604846792 87.0207756813478 65.70020312898029 H 0.0 **** 0.06
11909 H 109.63988620890032 85.47137838470272 65.61246156694608 H 0.0 **** 0.06
11910 H 110.24281022052938 86.77203180782826 66.66668019688723 H 0.0 **** 0.06
11911 C 14.326723164356139 96.26471266209268 59.80596637402453 C 0.0 **** -0.24
11912 H 14.16285473172762 95.1871568635334 59.80582319950947 H 0.0 **** 0.06
11913 H 15.095703691495856 96.51501061438472 60.537995316472525 H 0.0 **** 0.06
11914 H 13.398344013228169 96.77216770618014 60.06648484241149 H 0.0 **** 0.06
11915 H 14.649834101342492 96.5834456690996 58.81551954633982 H 0.0 **** 0.06
11916 C 45.09548385851747 34.1116943128946 67.34508707553857 C 0.0 **** -0.24
11917 H 45.99043801034111 34.025342150585345 67.9616961806318 H 0.0 **** 0.06
11918 H 44.77319440756753 35.15205715020119 67.31576117287324 H 0.0 **** 0.06
11919 H 44.301244780987076 33.49689131174051 67.76908586552435 H 0.0 **** 0.06
11920 H 45.31707551089596 33.77109577040642 66.33354954563634 H 0.0 **** 0.06
11921 C 78.0892995274371 110.49437644979506 87.73916958736066 C 0.0 **** -0.24
11922 H 77.12788551231375 110.06123919395532 88.01531375849129 H 0.0 **** 0.06
11923 H 78.05905177159929 111.57320203334206 87.8930294037576 H 0.0 **** 0.06
11924 H 78.29365654266854 110.28307859401892 86.68932062493553 H 0.0 **** 0.06
11925 H 78.87458538001147 110.06018225359239 88.35807339834878 H 0.0 **** 0.06
11926 C 55.06104995475929 61.459690524957814 2.222695081842444 C 0.0 **** -0.24
11927 H 54.863115705591255 60.509118050964155 1.726514224579427 H 0.0 **** 0.06
11928 H 56.13660376586297 61.58657865164036 2.348853053579063 H 0.0 **** 0.06
11929 H 54.57588917765499 61.46854199498461 3.1984148298781214 H 0.0 **** 0.06
11930 H 54.66880450018128 62.27477255811815 1.613549583047159 H 0.0 **** 0.06
11931 C 107.13133267192137 85.01966659491666 76.512563625876 C 0.0 **** -0.24
11932 H 106.61793097344852 84.32802369479069 77.18087883027391 H 0.0 **** 0.06
11933 H 106.42146908458346 85.76055181736186 76.14332085468763 H 0.0 **** 0.06
11934 H 107.5522976778314 84.46809047122022 75.6730271291768 H 0.0 **** 0.06
11935 H 107.93146000466982 85.52245603947787 77.0558687151262 H 0.0 **** 0.06
11936 C 5.779077559781273 109.42570443942003 35.95438163415186 C 0.0 **** -0.24
11937 H 6.128470736372652 109.55475845701767 34.92984960680155 H 0.0 **** 0.06
11938 H 6.498421375144128 108.82358692503746 36.509906064372 H 0.0 **** 0.06
11939 H 4.81207711898157 108.92336932343429 35.948062410476815 H 0.0 **** 0.06
11940 H 5.67809253015114 110.40220649791925 36.42924183265832 H 0.0 **** 0.06
11941 C 28.938250139943094 69.86628528998378 46.49762845453509 C 0.0 **** -0.24
11942 H 29.76851508020647 70.481920492731 46.84377989464858 H 0.0 **** 0.06
11943 H 28.754865225732956 70.06575446159337 45.44119317952601 H 0.0 **** 0.06
11944 H 28.044522025677637 70.10573309141213 47.07321524832855 H 0.0 **** 0.06
11945 H 29.186245367282538 68.81420825854278 46.63107719967326 H 0.0 **** 0.06
11946 C 55.26868065822734 29.49569650275582 33.02939644064588 C 0.0 **** -0.24
11947 H 56.21594828013829 29.364021679164857 32.50597480122198 H 0.0 **** 0.06
11948 H 54.734859721128686 30.345478230051405 32.60330062523934 H 0.0 **** 0.06
11949 H 55.46085590802684 29.678280800153416 34.0863704238173 H 0.0 **** 0.06
11950 H 54.665561638448565 28.594081155191702 32.920242285169394 H 0.0 **** 0.06
11951 C 15.899224396915045 27.407337109374083 64.70754232993738 C 0.0 **** -0.24
11952 H 16.562869656495252 26.908547715383378 64.00085390553434 H 0.0 **** 0.06
11953 H 15.822384116537734 26.809058811503718 65.6166326242371 H 0.0 **** 0.06
11954 H 14.911411416193076 27.519167209636862 64.26108303128436 H 0.0 **** 0.06
11955 H 16.301640435115814 28.389758163542496 64.95189150661022 H 0.0 **** 0.06
11956 C 84.43646361378654 103.26419966265274 47.57153935597847 C 0.0 **** -0.24
11957 H 85.21847105913497 103.95690475542102 47.25979358518881 H 0.0 **** 0.06
11958 H 83.62137803453965 103.2867669635682 46.848870310250035 H 0.0 **** 0.06
11959 H 84.0609920120591 103.55817214543026 48.5520533463406 H 0.0 **** 0.06
11960 H 84.84643204617305 102.25555520406544 47.627061009545315 H 0.0 **** 0.06
11961 C 38.31492025327236 45.42277784305426 85.55876899897385 C 0.0 **** -0.24
11962 H 38.940235398768095 46.065302461225 84.93866861243964 H 0.0 **** 0.06
11963 H 37.850405224065526 46.018595366034276 86.34474907589777 H 0.0 **** 0.06
11964 H 38.92992311643039 44.643484591930076 86.00938626893003 H 0.0 **** 0.06
11965 H 37.54112039688903 44.96568393848813 84.94335187211288 H 0.0 **** 0.06
11966 C 34.747931189814636 45.24987120010377 12.394584168713834 C 0.0 **** -0.24
11967 H 33.69619255969937 45.32032282890532 12.115557537321706 H 0.0 **** 0.06
11968 H 35.35669513548949 45.16522354423324 11.494853889421677 H 0.0 **** 0.06
11969 H 34.8991919851437 44.37090837533327 13.020661540875864 H 0.0 **** 0.06
11970 H 35.037625636284304 46.14390201885442 12.947665961809037 H 0.0 **** 0.06
11971 C 55.32565909682495 42.00973796730443 19.086737329165743 C 0.0 **** -0.24
11972 H 55.365632304568805 42.75014488737406 19.88608966864055 H 0.0 **** 0.06
11973 H 54.34082926264534 41.543667482296996 19.073141569081628 H 0.0 **** 0.06
11974 H 56.086474630723956 41.24801573399453 19.26009363768779 H 0.0 **** 0.06
11975 H 55.51124687849688 42.49824227320247 18.13068343304144 H 0.0 **** 0.06
11976 C 14.963437300174931 23.300871624123502 79.3779559338885 C 0.0 **** -0.24
11977 H 14.764083108356147 22.25836243024598 79.62620758426553 H 0.0 **** 0.06
11978 H 15.163924848937796 23.387673314881113 78.30948428223587 H 0.0 **** 0.06
11979 H 15.830796506369083 23.64829704043126 79.93901739259056 H 0.0 **** 0.06
11980 H 14.095735518568176 23.90882377968228 79.63598934385448 H 0.0 **** 0.06
11981 C 5.621118391594353 35.02733848359234 69.63042100277463 C 0.0 **** -0.24
11982 H 4.697700836134434 35.5998750112984 69.53645078435409 H 0.0 **** 0.06
11983 H 5.978054964122851 34.74846559136481 68.63899042870077 H 0.0 **** 0.06
11984 H 5.431335146234609 34.12680079453065 70.21487083503789 H 0.0 **** 0.06
11985 H 6.375466671386839 35.63279376912805 70.13193461646989 H 0.0 **** 0.06
11986 C 63.24861798867573 24.288486757293015 61.82452387294365 C 0.0 **** -0.24
11987 H 63.03523474922815 23.392934241540104 61.240361469593104 H 0.0 **** 0.06
11988 H 63.95519418816701 24.916405730425083 61.2816894296682 H 0.0 **** 0.06
11989 H 63.67910066284088 24.002806578624302 62.78375420651323 H 0.0 **** 0.06
11990 H 62.32382128404839 24.842182855713077 61.99102659843131 H 0.0 **** 0.06
11991 C 101.1645366063548 21.22008158713996 30.425405521588118 C 0.0 **** -0.24
11992 H 100.2349105978476 20.651536900109278 30.426286291570307 H 0.0 **** 0.06
11993 H 101.53940531139372 21.30366179419454 31.4453879625392 H 0.0 **** 0.06
11994 H 100.98149312100495 22.216124641183512 30.021795896291053 H 0.0 **** 0.06
11995 H 101.9022804663635 20.706943522447517 29.807282717283158 H 0.0 **** 0.06
11996 C 53.09618949781678 14.484846679133213 84.22637461349723 C 0.0 **** -0.24
11997 H 53.64701200970028 14.395150463984162 85.16316359260989 H 0.0 **** 0.06
11998 H 52.879965456118796 15.535260069960241 84.03237656651183 H 0.0 **** 0.06
11999 H 52.162209100385844 13.927752494463245 84.29917618629301 H 0.0 **** 0.06
12000 H 53.69726623795984 14.080003685864288 83.41158178809943 H 0.0 **** 0.06
12001 C 91.8680308870087 51.88402012573704 8.99428441476698 C 0.0 **** -0.24
12002 H 92.27459305916364 52.620994303062275 9.6862949684771 H 0.0 **** 0.06
12003 H 91.71633569147423 52.34737351698908 8.018521282817517 H 0.0 **** 0.06
12004 H 90.91590311707782 51.51485563130552 9.374435217051428 H 0.0 **** 0.06
12005 H 92.56758012307841 51.05286278900746 8.897012499035355 H 0.0 **** 0.06
12006 C 23.125324124390715 60.229013398774036 43.09091808226691 C 0.0 **** -0.24
12007 H 23.615192840609325 59.659308725786 43.88052976629119 H 0.0 **** 0.06
12008 H 23.232127113615036 59.699523783640835 42.1435758409189 H 0.0 **** 0.06
12009 H 23.587505240355455 61.21225864267779 43.01156623689003 H 0.0 **** 0.06
12010 H 22.067221335315736 60.342144494872905 43.327295410210056 H 0.0 **** 0.06
12011 C 74.46567359572379 94.12992137207704 72.2090636560614 C 0.0 **** -0.24
12012 H 73.91105279456352 94.81393817149376 71.56701447375701 H 0.0 **** 0.06
12013 H 74.24615690765572 94.35267134341157 73.25288510726477 H 0.0 **** 0.06
12014 H 75.53444131208343 94.2499657393995 72.02866307014415 H 0.0 **** 0.06
12015 H 74.17245908326771 93.10426962777174 71.98640673315376 H 0.0 **** 0.06
12016 C 55.04954075463047 99.47923473929598 109.21932912270874 C 0.0 **** -0.24
12017 H 55.71906009364261 100.07651545755107 108.60027258627414 H 0.0 **** 0.06
12018 H 54.881223061235936 99.98866339886243 110.16837074917346 H 0.0 **** 0.06
12019 H 55.50037102969898 98.50438621483727 109.40539581124573 H 0.0 **** 0.06
12020 H 54.09921218739556 99.34739361703978 108.70359098067345 H 0.0 **** 0.06
12021 C 27.21873121213543 67.2245541906421 58.95759671275615 C 0.0 **** -0.24
12022 H 26.5875294787755 68.04174995134716 58.60771976211645 H 0.0 **** 0.06
12023 H 26.59085045883876 66.42765035120442 59.35746979465454 H 0.0 **** 0.06
12024 H 27.885101450241798 67.58990168636075 59.73890797955726 H 0.0 **** 0.06
12025 H 27.80977430532993 66.8400157985331 58.126332806230245 H 0.0 **** 0.06
12026 C 74.93203752699955 43.77197549603011 38.046347856209536 C 0.0 **** -0.24
12027 H 75.02293377743518 42.79908172379952 38.52931883471166 H 0.0 **** 0.06
12028 H 73.89907574035527 43.92763518734981 37.73462776551571 H 0.0 **** 0.06
12029 H 75.58369870772245 43.80607548853445 37.173501786107124 H 0.0 **** 0.06
12030 H 75.22302931978211 44.55452149303123 38.74738705051408 H 0.0 **** 0.06
12031 C 106.42245323143553 48.620915594094186 2.7066774813903294 C 0.0 **** -0.24
12032 H 107.3816764942832 48.239197973243904 2.358234185891604 H 0.0 **** 0.06
12033 H 106.46987595083115 48.79742101138697 3.7817483507736256 H 0.0 **** 0.06
12034 H 105.64155221189924 47.89162721421394 2.4918742465939943 H 0.0 **** 0.06
12035 H 106.19628270305199 49.556597148492074 2.1942017477263107 H 0.0 **** 0.06
12036 C 75.58842773366203 103.70908866668486 4.120905755046891 C 0.0 **** -0.24
12037 H 74.63348308550914 104.17700520052873 4.359275640650964 H 0.0 **** 0.06
12038 H 75.58620608659686 103.38954688700451 3.0784329505702317 H 0.0 **** 0.06
12039 H 75.7405220912243 102.8439158597219 4.765785338778613 H 0.0 **** 0.06
12040 H 76.393391640933 104.42712085734192 4.2794469269884985 H 0.0 **** 0.06
12041 C 39.32766118818901 41.20802831725595 69.78294475925091 C 0.0 **** -0.24
12042 H 39.93690066449166 41.128194836948346 70.68234521115832 H 0.0 **** 0.06
12043 H 38.983192877601454 42.23570729448387 69.6667255565776 H 0.0 **** 0.06
12044 H 38.46861762458073 40.542826932734236 69.86647095364242 H 0.0 **** 0.06
12045 H 39.922730899225655 40.92395986592137 68.91508155732825 H 0.0 **** 0.06
12046 C 35.917341027367684 71.70819454683476 74.37989982676567 C 0.0 **** -0.24
12047 H 35.768929681014015 72.69046085062223 73.93153015851289 H 0.0 **** 0.06
12048 H 36.3327363575234 71.82414765268254 75.3806230399259 H 0.0 **** 0.06
12049 H 36.60709007760755 71.12978975381634 73.76462462304792 H 0.0 **** 0.06
12050 H 34.96126057359032 71.18755000739992 74.44061112192779 H 0.0 **** 0.06
12051 C 94.43166494586038 78.85242855919563 94.70884651508115 C 0.0 **** -0.24
12052 H 94.91944009845727 79.7895250296163 94.97422907775757 H 0.0 **** 0.06
12053 H 93.3966436373241 79.04774572142242 94.42860647832086 H 0.0 **** 0.06
12054 H 94.45465336249927 78.17679482913019 95.56388159315745 H 0.0 **** 0.06
12055 H 94.95585889392629 78.39423021699253 93.86966094429911 H 0.0 **** 0.06
12056 C 44.2739410482629 90.83709194938686 53.17888038899699 C 0.0 **** -0.24
12057 H 44.426977425389644 91.91603708625823 53.190654288696805 H 0.0 **** 0.06
12058 H 43.764335197800605 90.53235594032788 54.092783673511434 H 0.0 **** 0.06
12059 H 45.23972526985592 90.33433612447368 53.116064118135654 H 0.0 **** 0.06
12060 H 43.66570713841013 90.56557814181005 52.31620481838266 H 0.0 **** 0.06
12061 C 1.2758663271131923 41.1154963577265 102.43808150137707 C 0.0 **** -0.24
12062 H 0.5431908360317834 41.201949814627596 103.24025965853451 H 0.0 **** 0.06
12063 H 1.082371412756089 40.206654020461144 101.86618129149849 H 0.0 **** 0.06
12064 H 2.278021647894633 41.0704137472098 102.86484921604543 H 0.0 **** 0.06
12065 H 1.1982694647148264 41.982386828155725 101.78128924049042 H 0.0 **** 0.06
12066 C 61.18161670502906 96.64395558254458 47.35089287738492 C 0.0 **** -0.24
12067 H 60.60927230357726 97.20159359892853 46.60888534652452 H 0.0 **** 0.06
12068 H 61.504318380651966 95.69524138080942 46.92213959489288 H 0.0 **** 0.06
12069 H 60.55831463187505 96.45552863085456 48.22461031391731 H 0.0 **** 0.06
12070 H 62.05515297725671 97.2250565218005 47.646487989346156 H 0.0 **** 0.06
12071 C 15.791288735115586 45.17947929313004 14.26966249518739 C 0.0 **** -0.24
12072 H 15.209159347662307 44.444928170860635 14.824687110324135 H 0.0 **** 0.06
12073 H 16.847329508058777 45.06827142991742 14.516709284636889 H 0.0 **** 0.06
12074 H 15.458441978222254 46.18324389017786 14.535169747046993 H 0.0 **** 0.06
12075 H 15.649958157990397 45.02157374399974 13.199650816088194 H 0.0 **** 0.06
12076 C 0.42355504900024243 47.794867439031805 92.06530081932581 C 0.0 **** -0.24
12077 H 0.7175339247288264 47.56593144756715 91.04124853110704 H 0.0 **** 0.06
12078 H -0.6363328310725365 47.57332948220491 92.19715719157747 H 0.0 **** 0.06
12079 H 0.6035625153223805 48.85029464010276 92.26775101162366 H 0.0 **** 0.06
12080 H 1.0097861031695459 47.18753222891323 92.75551348912126 H 0.0 **** 0.06
12081 C 98.00492954493515 105.17829585851521 93.13972092349579 C 0.0 **** -0.24
12082 H 97.68346215850056 105.30239617205325 94.17373553241833 H 0.0 **** 0.06
12083 H 97.90666551077715 106.12865903882516 92.61234007645791 H 0.0 **** 0.06
12084 H 97.38192314018605 104.42714358121597 92.65284338223842 H 0.0 **** 0.06
12085 H 99.04602083848107 104.85611681786102 93.11896101247413 H 0.0 **** 0.06
12086 C 19.25917599651757 57.51040272221475 40.93270485669842 C 0.0 **** -0.24
12087 H 19.0701007187819 57.62830481812406 41.99998694737195 H 0.0 **** 0.06
12088 H 19.25658824727438 56.450858647095615 40.677156354012766 H 0.0 **** 0.06
12089 H 20.22935282090978 57.94180431969628 40.685393303970955 H 0.0 **** 0.06
12090 H 18.479006163957024 58.022294393645346 40.367554034602335 H 0.0 **** 0.06
12091 C 91.29053952187749 16.901602945839542 4.036270602552145 C 0.0 **** -0.24
12092 H 90.63895558174181 16.1935217184393 3.5241448949815286 H 0.0 **** 0.06
12093 H 91.94014783672122 17.38931345162051 3.3085419680410197 H 0.0 **** 0.06
12094 H 91.89911099491118 16.370913461912806 4.767913806313999 H 0.0 **** 0.06
12095 H 90.6843756160851 17.65273682733725 4.543137080523076 H 0.0 **** 0.06
12096 C 110.36751272486669 101.86829625613444 105.53501002184129 C 0.0 **** -0.24
12097 H 109.46736093148934 101.61224266729204 106.09293442737325 H 0.0 **** 0.06
12098 H 111.04993921891003 101.01858208685695 105.53553802308676 H 0.0 **** 0.06
12099 H 110.8533777068323 102.7244162809883 106.00421058851944 H 0.0 **** 0.06
12100 H 110.10005283497082 102.11939968913413 104.50920614558831 H 0.0 **** 0.06
12101 C 97.62552436220727 98.0651105528193 35.23106543763291 C 0.0 **** -0.24
12102 H 97.12979736559754 97.42088944016038 35.95673909079866 H 0.0 **** 0.06
12103 H 98.11364398175701 98.88983840697898 35.75195764108054 H 0.0 **** 0.06
12104 H 96.88792729152408 98.46168641823513 34.5331474256042 H 0.0 **** 0.06
12105 H 98.37118351538419 97.48863613349056 34.68452083683931 H 0.0 **** 0.06
12106 C 45.003017400360534 6.048351558604253 37.760416201294376 C 0.0 **** -0.24
12107 H 44.875887445919375 5.004572055067229 38.04744530764864 H 0.0 **** 0.06
12108 H 46.006449068427685 6.194762336174449 37.35702268633482 H 0.0 **** 0.06
12109 H 44.86648210025419 6.6855402920003115 38.635053329966496 H 0.0 **** 0.06
12110 H 44.264548963727975 6.309093115301408 37.002147377433786 H 0.0 **** 0.06
12111 C 23.03221877046525 43.5576180398686 107.50837475932889 C 0.0 **** -0.24
12112 H 24.03840131979598 43.55203680923911 107.08852008020119 H 0.0 **** 0.06
12113 H 22.85163585870839 44.512874316527046 108.00387126951256 H 0.0 **** 0.06
12114 H 22.9350215890247 42.748891439857346 108.23231837207862 H 0.0 **** 0.06
12115 H 22.30483465511014 43.419475576085944 106.70908924262994 H 0.0 **** 0.06
12116 C 79.0638454555714 33.86356570574046 27.89121425507833 C 0.0 **** -0.24
12117 H 79.99765713211218 34.069495713178604 27.368125380625877 H 0.0 **** 0.06
12118 H 78.42977552367645 33.23228154803386 27.268448616693618 H 0.0 **** 0.06
12119 H 78.55068421704709 34.802222988302134 28.09979859889812 H 0.0 **** 0.06
12120 H 79.27839809417316 33.35110034598512 28.8283651191972 H 0.0 **** 0.06
12121 C 40.492093122960085 27.63380643865907 34.458309541761174 C 0.0 **** -0.24
12122 H 41.174388206685045 27.582401461760114 35.30576115512596 H 0.0 **** 0.06
12123 H 39.48972350205619 27.350801180990445 34.78150858961266 H 0.0 **** 0.06
12124 H 40.82928090553064 26.951045944928147 33.67786931666819 H 0.0 **** 0.06
12125 H 40.47419734765883 28.651598957722243 34.06813196761181 H 0.0 **** 0.06
12126 C 12.789348156094377 43.349227364200544 40.45396258239299 C 0.0 **** -0.24
12127 H 12.277693349081744 43.679328248483046 41.357912880767344 H 0.0 **** 0.06
12128 H 12.266460989303141 42.48941460638491 40.03370136551962 H 0.0 **** 0.06
12129 H 13.813373130775915 43.067906272958226 40.69922300374236 H 0.0 **** 0.06
12130 H 12.799344235483545 44.15977806695952 39.72571743932457 H 0.0 **** 0.06
12131 C 30.099667619587876 33.0024204276252 5.250291947169302 C 0.0 **** -0.24
12132 H 30.075165584187687 32.55472916168887 6.242889784613425 H 0.0 **** 0.06
12133 H 29.603265513124484 33.973852825689704 5.277042424755223 H 0.0 **** 0.06
12134 H 29.583993244468843 32.350510617653896 4.5451827873637285 H 0.0 **** 0.06
12135 H 31.13498965245185 33.131975855797975 4.934828678060768 H 0.0 **** 0.06
12136 C 93.45258000118406 45.55395200115757 61.76396196319477 C 0.0 **** -0.24
12137 H 92.92641212569532 44.73333067566634 62.252786533079906 H 0.0 **** 0.06
12138 H 92.74599458822087 46.34901441273192 61.5274029583779 H 0.0 **** 0.06
12139 H 93.91485743994804 45.191776454777084 60.84564511310153 H 0.0 **** 0.06
12140 H 94.22394706797036 45.93920773573592 62.43144927099301 H 0.0 **** 0.06
12141 C 109.82217119945267 39.04476525022511 34.49969235510879 C 0.0 **** -0.24
12142 H 108.97567926054703 39.19956951473151 33.830813131349466 H 0.0 **** 0.06
12143 H 110.7458744099402 39.305753499126325 33.983321465434365 H 0.0 **** 0.06
12144 H 109.85793372458231 37.99831827206319 34.80342773465148 H 0.0 **** 0.06
12145 H 109.70693897404442 39.67463704268704 35.381743059377165 H 0.0 **** 0.06
12146 C 11.176308386519366 76.32468995652977 105.88501535237478 C 0.0 **** -0.24
12147 H 11.584697806163888 75.35514863833657 106.17014883589536 H 0.0 **** 0.06
12148 H 10.090659237550028 76.30559016047641 105.98550201424106 H 0.0 **** 0.06
12149 H 11.442757820206879 76.541086268362 104.85056152802318 H 0.0 **** 0.06
12150 H 11.587871098033872 77.09736699583226 106.53565104924031 H 0.0 **** 0.06
12151 C 59.61848089249005 85.93596575149724 72.67187660672371 C 0.0 **** -0.24
12152 H 59.19843133836195 85.85188975193006 73.67470862123639 H 0.0 **** 0.06
12153 H 59.51004280770409 84.98338261828732 72.15199871526758 H 0.0 **** 0.06
12154 H 60.675027174173486 86.19463031069137 72.7414394303477 H 0.0 **** 0.06
12155 H 59.08901003955112 86.713360091823 72.12064247311162 H 0.0 **** 0.06
12156 C 7.934552661675411 62.20630537800372 19.829098221086923 C 0.0 **** -0.24
12157 H 6.990928191919522 62.596584857337206 19.449087531822016 H 0.0 **** 0.06
12158 H 8.63099327343889 62.06981327765527 19.000642502249292 H 0.0 **** 0.06
12159 H 7.760784806137906 61.248255332536814 20.319176010603428 H 0.0 **** 0.06
12160 H 8.356347906448491 62.910901916069946 20.545443002979994 H 0.0 **** 0.06
12161 C 108.31881638461641 22.48129350129568 23.70307509261937 C 0.0 **** -0.24
12162 H 107.77049960595649 21.543742682865712 23.6147828183245 H 0.0 **** 0.06
12163 H 107.63637530190951 23.31704269540336 23.54473713348797 H 0.0 **** 0.06
12164 H 109.10953480949303 22.51117751281157 22.95321862251748 H 0.0 **** 0.06
12165 H 108.75853725115239 22.55377040376078 24.697198313842737 H 0.0 **** 0.06
12166 C 54.663526153132736 50.04435760875958 61.64206164463271 C 0.0 **** -0.24
12167 H 54.80485188116682 49.36913071785841 60.79794015245704 H 0.0 **** 0.06
12168 H 54.26371165276228 50.993831030357 61.28542036583466 H 0.0 **** 0.06
12169 H 55.620071984363626 50.2139587733584 62.13596536375693 H 0.0 **** 0.06
12170 H 53.96337074021081 49.59848452266175 62.349624410192 H 0.0 **** 0.06
12171 C 110.34798479854896 96.2854038024866 13.985266978672108 C 0.0 **** -0.24
12172 H 111.29240713574592 96.76668578710738 13.728705946978426 H 0.0 **** 0.06
12173 H 110.53158297381742 95.24422065573654 14.250096628607292 H 0.0 **** 0.06
12174 H 109.67480970143339 96.33080579555482 13.129747088325619 H 0.0 **** 0.06
12175 H 109.89523794949628 96.8020927574178 14.831176058056876 H 0.0 **** 0.06
12176 C 22.235844038062538 23.165485305114167 42.500450319548634 C 0.0 **** -0.24
12177 H 22.664497237578303 22.280505586699583 42.97065848412875 H 0.0 **** 0.06
12178 H 22.897373827495613 23.51226905172311 41.70695758048154 H 0.0 **** 0.06
12179 H 22.117996710806295 23.951910384854404 43.24617413651431 H 0.0 **** 0.06
12180 H 21.2618882956005 22.916095549057722 42.07817978134497 H 0.0 **** 0.06
12181 C 95.0053709219141 1.3822883430183737 72.34860343980017 C 0.0 **** -0.24
12182 H 95.18728912234997 2.3248463018819336 72.8646534723203 H 0.0 **** 0.06
12183 H 95.71768429201097 0.6336645249116373 72.69811243567267 H 0.0 **** 0.06
12184 H 95.12674678049387 1.526824124977665 71.27523412866924 H 0.0 **** 0.06
12185 H 93.99049263674002 1.0445084005112193 72.55740991020912 H 0.0 **** 0.06
12186 C 56.23663121483489 91.46645784650536 52.53819879030036 C 0.0 **** -0.24
12187 H 56.9281216004093 92.22066113494628 52.160766794136634 H 0.0 **** 0.06
12188 H 56.7775103864345 90.76472563982833 53.17334211081193 H 0.0 **** 0.06
12189 H 55.79101216381875 90.93028084039065 51.70070417377583 H 0.0 **** 0.06
12190 H 55.45229840145444 91.952573416446 53.11857288739406 H 0.0 **** 0.06
12191 C 23.503135998653022 38.86798873917195 63.573753794560524 C 0.0 **** -0.24
12192 H 23.90325325791511 39.872623395141034 63.436959144516855 H 0.0 **** 0.06
12193 H 24.023909055541964 38.177009170725 62.91185427557324 H 0.0 **** 0.06
12194 H 22.43895630748483 38.86664835310445 63.337685618008145 H 0.0 **** 0.06
12195 H 23.646362150335023 38.557839966155285 64.60906844479763 H 0.0 **** 0.06
12196 C 86.2028564142029 88.69189021710369 12.469872490885763 C 0.0 **** -0.24
12197 H 86.37426228624344 87.95871063127342 11.682318645772355 H 0.0 **** 0.06
12198 H 85.21020393303863 88.5430719526145 12.895214216543195 H 0.0 **** 0.06
12199 H 86.27088637143595 89.6967581961874 12.051468695927724 H 0.0 **** 0.06
12200 H 86.9550992504083 88.57100224264585 13.248457824636773 H 0.0 **** 0.06
12201 C 49.75784715698967 16.18707611470927 96.78579981225039 C 0.0 **** -0.24
12202 H 49.5761330393899 16.818716415913343 97.6556721770861 H 0.0 **** 0.06
12203 H 50.64021410578471 15.571127807755943 96.96297969729136 H 0.0 **** 0.06
12204 H 49.92173507635641 16.814582206459647 95.90917942678468 H 0.0 **** 0.06
12205 H 48.893147810042706 15.544473297849066 96.61615570323289 H 0.0 **** 0.06
12206 C 23.9682943579907 101.47156576628609 21.18692287452032 C 0.0 **** -0.24
12207 H 24.39697675177287 100.46972459954452 21.222223094080647 H 0.0 **** 0.06
12208 H 23.161942868400033 101.54718399928933 21.917618191412572 H 0.0 **** 0.06
12209 H 23.57398695596001 101.66302811600036 20.189564784095666 H 0.0 **** 0.06
12210 H 24.739798709944793 102.2051449806961 21.42012437594005 H 0.0 **** 0.06
12211 C 90.58612173912582 60.45991125363446 81.60108682534354 C 0.0 **** -0.24
12212 H 90.98950023618431 59.91740048349371 80.74617148958791 H 0.0 **** 0.06
12213 H 89.96093899793254 59.79087770036975 82.19266357654956 H 0.0 **** 0.06
12214 H 89.98738089897589 61.299558082419 81.24771589553637 H 0.0 **** 0.06
12215 H 91.40551477056073 60.83088848327478 82.21538255835458 H 0.0 **** 0.06
12216 C 23.4625213399463 110.02824109297754 92.8049380644895 C 0.0 **** -0.24
12217 H 24.539898855640764 110.02798659736231 92.96902946885803 H 0.0 **** 0.06
12218 H 23.258198202869657 110.10131563022252 91.73701085424133 H 0.0 **** 0.06
12219 H 23.01703536929792 110.87944542876738 93.31995440080064 H 0.0 **** 0.06
12220 H 23.035068090279974 109.10376028373422 93.19509114644643 H 0.0 **** 0.06
12221 C 60.57267535626277 39.7724392128186 55.06139294456065 C 0.0 **** -0.24
12222 H 61.12535525520479 38.956886511674384 54.594560925551434 H 0.0 **** 0.06
12223 H 61.063146272019985 40.0562678280495 55.9928214283419 H 0.0 **** 0.06
12224 H 59.55364150100383 39.447362559193095 55.271689339387535 H 0.0 **** 0.06
12225 H 60.54917629697368 40.62807817239485 54.38701833216936 H 0.0 **** 0.06
12226 C 75.07183912498147 73.76661146450931 47.331227144371226 C 0.0 **** -0.24
12227 H 74.02818247860375 73.95504488899036 47.07924689633552 H 0.0 **** 0.06
12228 H 75.16759320419152 72.77033035344934 47.762655563555796 H 0.0 **** 0.06
12229 H 75.41111474865028 74.51036084959196 48.05274175664617 H 0.0 **** 0.06
12230 H 75.68081604335794 73.83291751173681 46.4302038631007 H 0.0 **** 0.06
12231 C 97.46505066441426 72.31073069585545 16.58766240045823 C 0.0 **** -0.24
12232 H 97.7548068876689 71.34305712517414 16.999578278357987 H 0.0 **** 0.06
12233 H 97.40539247850108 72.2394358500153 15.50121664167196 H 0.0 **** 0.06
12234 H 98.20907865787623 73.05870826398427 16.86308269330094 H 0.0 **** 0.06
12235 H 96.49293217149273 72.59898494429513 16.987989177788492 H 0.0 **** 0.06
12236 C 37.14135632087647 81.40188830599166 97.82815572512533 C 0.0 **** -0.24
12237 H 37.569979212607166 82.27331579919883 97.33338414235317 H 0.0 **** 0.06
12238 H 37.89126754698009 80.6120874184256 97.88541108285656 H 0.0 **** 0.06
12239 H 36.282198322541205 81.04666134982199 97.2589196156841 H 0.0 **** 0.06
12240 H 36.82388410486061 81.67541731460366 98.83373744204573 H 0.0 **** 0.06
12241 C 112.39592021920987 66.01978911373772 24.262854793559967 C 0.0 **** -0.24
12242 H 113.00371740578638 65.79631574867977 25.140313449133288 H 0.0 **** 0.06
12243 H 111.45971388375392 65.46513109033125 24.320060775761164 H 0.0 **** 0.06
12244 H 112.93834592065261 65.72826636280249 23.363183040540605 H 0.0 **** 0.06
12245 H 112.18511287159575 67.0888096965738 24.22967861015809 H 0.0 **** 0.06
12246 C 57.04168898760338 87.45524683936088 20.60110689003159 C 0.0 **** -0.24
12247 H 57.559834381240194 88.32747323835773 21.000285894640466 H 0.0 **** 0.06
12248 H 56.13455884971074 87.27607284987474 21.17791358292954 H 0.0 **** 0.06
12249 H 57.69426584365718 86.58399381297446 20.66847215251877 H 0.0 **** 0.06
12250 H 56.78054442549947 87.63345141247007 19.557656807972393 H 0.0 **** 0.06
12251 C 21.450288497170277 86.0841793860888 111.23705836078977 C 0.0 **** -0.24
12252 H 21.05752353312448 86.41585310521933 112.19837029414063 H 0.0 **** 0.06
12253 H 21.04440660677787 86.71322983723482 110.44366128872886 H 0.0 **** 0.06
12254 H 21.16010766690121 85.04797214013703 111.06443739548374 H 0.0 **** 0.06
12255 H 22.537653326247323 86.16130206897691 111.24217922402701 H 0.0 **** 0.06
12256 C 5.691060181150462 18.419856376945916 53.34180780558694 C 0.0 **** -0.24
12257 H 5.065742021291953 19.1078600778352 52.77260440514675 H 0.0 **** 0.06
12258 H 5.108619190369339 17.539884007091416 53.614900306383504 H 0.0 **** 0.06
12259 H 6.046857117211246 18.914629391660128 54.245222750441286 H 0.0 **** 0.06
12260 H 6.543917241147042 18.117012221807784 52.73340932886251 H 0.0 **** 0.06
12261 C 93.64070027172667 106.91976594578232 64.75010985327691 C 0.0 **** -0.24
12262 H 93.02938796182158 106.32585588184102 64.07049783391403 H 0.0 **** 0.06
12263 H 94.01162785318829 107.80198545145753 64.22744369005599 H 0.0 **** 0.06
12264 H 94.4842234298149 106.32234333940596 65.09717950944807 H 0.0 **** 0.06
12265 H 93.03921112498927 107.22908934370783 65.60483274811165 H 0.0 **** 0.06
12266 C 104.02764741697564 85.95378888406537 2.442456608088051 C 0.0 **** -0.24
12267 H 102.95011958534187 86.11890815856646 2.453980818150157 H 0.0 **** 0.06
12268 H 104.46951336512052 86.49834966635535 1.608813788061326 H 0.0 **** 0.06
12269 H 104.22913398033864 84.88778566132737 2.3290159562090906 H 0.0 **** 0.06
12270 H 104.45962979212567 86.30716293214869 3.3787190699684686 H 0.0 **** 0.06
12271 C 28.6101330048987 90.64323545332476 48.582051522431016 C 0.0 **** -0.24
12272 H 28.881097932245495 89.85357591241689 49.28232230247221 H 0.0 **** 0.06
12273 H 28.865716287704117 90.33338781219351 47.568982428954826 H 0.0 **** 0.06
12274 H 29.15501063901914 91.55353316901699 48.83289179492493 H 0.0 **** 0.06
12275 H 27.53796850861849 90.83199235487285 48.64512745950424 H 0.0 **** 0.06
12276 C 7.92005273740449 66.02661397190505 88.04519201418464 C 0.0 **** -0.24
12277 H 8.240839048884652 66.19786839636964 87.01729051379891 H 0.0 **** 0.06
12278 H 7.038414692278593 66.63179196520909 88.25660476274493 H 0.0 **** 0.06
12279 H 8.72380849643207 66.30309349004591 88.72786995354448 H 0.0 **** 0.06
12280 H 7.67743300929186 64.97208526694385 88.17748443390985 H 0.0 **** 0.06
12281 C 54.547741849815544 56.489104054847495 51.64782500509523 C 0.0 **** -0.24
12282 H 54.038982129818024 57.34518600716751 51.20394589524352 H 0.0 **** 0.06
12283 H 54.13777189749708 55.56830198578915 51.23223793914036 H 0.0 **** 0.06
12284 H 54.39936347380991 56.49834658502126 52.72707324041295 H 0.0 **** 0.06
12285 H 55.61379524925686 56.54566290402984 51.42639404579671 H 0.0 **** 0.06
12286 C 42.08934338150402 49.3041889053809 56.19161791968238 C 0.0 **** -0.24
12287 H 43.177844394259495 49.265637440403395 56.202230403040275 H 0.0 **** 0.06
12288 H 41.69006931959635 48.28905169790539 56.186601158298615 H 0.0 **** 0.06
12289 H 41.754035922461355 49.83126319738676 55.2984813239628 H 0.0 **** 0.06
12290 H 41.73570291531337 49.82951388459634 57.07864918316763 H 0.0 **** 0.06
12291 C 60.99231682676302 81.70951643195619 20.187279384180243 C 0.0 **** -0.24
12292 H 60.44277814468784 80.84078314031092 19.825418819897322 H 0.0 **** 0.06
12293 H 61.549368890006626 81.4399454661606 21.08428264721215 H 0.0 **** 0.06
12294 H 60.29201216470154 82.51147784850878 20.42019061218187 H 0.0 **** 0.06
12295 H 61.68635663632194 82.04593003925302 19.416153521192427 H 0.0 **** 0.06
12296 C 56.55182157513384 103.17544931219385 108.1019683828686 C 0.0 **** -0.24
12297 H 57.39018781089443 103.85780439001255 108.23989937122816 H 0.0 **** 0.06
12298 H 55.99667646727937 103.45775675063723 107.20719140942336 H 0.0 **** 0.06
12299 H 55.8938561674263 103.22924012751784 108.96930883477857 H 0.0 **** 0.06
12300 H 56.926006322310904 102.15828243372118 107.99129482088412 H 0.0 **** 0.06
12301 C 100.57550131792647 43.291865651624505 40.45233193855674 C 0.0 **** -0.24
12302 H 100.29111018875295 42.66202245112123 39.6090605401877 H 0.0 **** 0.06
12303 H 101.64090383664694 43.516445147693105 40.39570201638472 H 0.0 **** 0.06
12304 H 100.36301673161583 42.768914086550865 41.38420118303719 H 0.0 **** 0.06
12305 H 100.00581528171469 44.22148432111675 40.41872481123315 H 0.0 **** 0.06
12306 C 14.800772952941244 96.31935290376597 22.774482204562673 C 0.0 **** -0.24
12307 H 14.376372534958534 95.93074497572914 23.70056027365314 H 0.0 **** 0.06
12308 H 15.87265746233848 96.47196234586761 22.90173928464219 H 0.0 **** 0.06
12309 H 14.324753414747917 97.26901082802482 22.528450366330333 H 0.0 **** 0.06
12310 H 14.62788747194341 95.60629590795307 21.96796514895709 H 0.0 **** 0.06
12311 C 99.09460695657287 83.49572660802176 91.9155793886467 C 0.0 **** -0.24
12312 H 99.74203924108068 82.6526392228962 91.67382847329412 H 0.0 **** 0.06
12313 H 99.65453794875953 84.42503785009097 91.81049706995614 H 0.0 **** 0.06
12314 H 98.73989990258522 83.39872332173792 92.9421439080009 H 0.0 **** 0.06
12315 H 98.24175514624616 83.50511845377764 91.23603907644036 H 0.0 **** 0.06
12316 C 26.354686830491943 47.394526111504604 48.636340989446325 C 0.0 **** -0.24
12317 H 27.40124701156968 47.29902387455698 48.9259882081039 H 0.0 **** 0.06
12318 H 26.117839618922496 46.648558487914016 47.87726515005487 H 0.0 **** 0.06
12319 H 26.179463440241378 48.39218238287219 48.2320933015945 H 0.0 **** 0.06
12320 H 25.72075960460915 47.23976702859753 49.50839040611716 H 0.0 **** 0.06
12321 C 67.05369922165161 77.50052645740095 96.63767317630055 C 0.0 **** -0.24
12322 H 66.71664484168863 78.53700822049643 96.64270103601504 H 0.0 **** 0.06
12323 H 67.77933999990742 77.35885576545309 95.83635033123065 H 0.0 **** 0.06
12324 H 66.20039875040433 76.84213437153778 96.47642948396032 H 0.0 **** 0.06
12325 H 67.51806592726348 77.26504520982701 97.59521822878418 H 0.0 **** 0.06
12326 C 47.12738063355809 35.87157754683548 53.37482534210079 C 0.0 **** -0.24
12327 H 47.88136507375924 36.601867814303574 53.66871815216527 H 0.0 **** 0.06
12328 H 46.18038029817852 36.113500344744836 53.85656290023431 H 0.0 **** 0.06
12329 H 47.447606123572655 34.87594796422391 53.681267405650004 H 0.0 **** 0.06
12330 H 47.00081178927896 35.89582274813236 52.29180273410918 H 0.0 **** 0.06
12331 C 57.82799800935189 14.054482941058922 69.65725193518074 C 0.0 **** -0.24
12332 H 58.073733875657894 14.71644230782104 68.82561909020282 H 0.0 **** 0.06
12333 H 56.8253675606081 13.650677541333792 69.51618181363744 H 0.0 **** 0.06
12334 H 57.86519580926006 14.617296465933308 70.59026087434935 H 0.0 **** 0.06
12335 H 58.547487265583044 13.238097815783021 69.69596611725294 H 0.0 **** 0.06
12336 C 42.729272783145774 66.63270547347759 8.730626118082029 C 0.0 **** -0.24
12337 H 42.87897242496129 65.87560859997438 9.499925599936489 H 0.0 **** 0.06
12338 H 42.49583657490503 66.14679309678183 7.782922511975471 H 0.0 **** 0.06
12339 H 43.63753062587867 67.2244371236053 8.621999852291083 H 0.0 **** 0.06
12340 H 41.90342556230607 67.28437584341009 9.017952677639016 H 0.0 **** 0.06
12341 C 3.5613879042239205 26.215849761384035 75.34190786563019 C 0.0 **** -0.24
12342 H 3.67142788678791 27.006707702304773 76.08455944315457 H 0.0 **** 0.06
12343 H 4.170247787893459 26.452333257578154 74.4680590747071 H 0.0 **** 0.06
12344 H 2.5154582821323856 26.13891173787347 75.04578605618485 H 0.0 **** 0.06
12345 H 3.8899158453689324 25.268856258751274 75.76886808191844 H 0.0 **** 0.06
12346 C 12.055924748903731 86.66277736873772 42.6427023666937 C 0.0 **** -0.24
12347 H 11.871160554531226 86.57302989706332 43.71352075259858 H 0.0 **** 0.06
12348 H 12.410363240019219 85.70828867751149 42.25364956777395 H 0.0 **** 0.06
12349 H 12.81006429623529 87.42962169184503 42.46770900370808 H 0.0 **** 0.06
12350 H 11.130307041732014 86.94049324138757 42.13721130008213 H 0.0 **** 0.06
12351 C 54.85326908178353 26.619668717483705 55.86142677396654 C 0.0 **** -0.24
12352 H 54.35695894127931 27.262733909612052 56.588951242376595 H 0.0 **** 0.06
12353 H 55.93077196478012 26.77287788536796 55.91663406905954 H 0.0 **** 0.06
12354 H 54.50044471518596 26.865969995613 54.85947762842352 H 0.0 **** 0.06
12355 H 54.621639145495905 25.57784197611693 56.08231812480983 H 0.0 **** 0.06
12356 C 59.617578257270374 32.05433807511679 72.22774258965006 C 0.0 **** -0.24
12357 H 58.61741325547781 32.24575644621913 72.61844638051596 H 0.0 **** 0.06
12358 H 60.35971354003892 32.373655501966624 72.95997277020697 H 0.0 **** 0.06
12359 H 59.75821366176579 32.611073836726206 71.30103206934805 H 0.0 **** 0.06
12360 H 59.73338060190019 30.988318183545545 72.03335182663042 H 0.0 **** 0.06
12361 C 58.19928886056103 35.45291568500912 23.88349364209148 C 0.0 **** -0.24
12362 H 58.86130967882918 34.98391251343912 24.612286426829627 H 0.0 **** 0.06
12363 H 57.289183107373994 34.8605107094663 23.786848520371706 H 0.0 **** 0.06
12364 H 58.70307573415584 35.50738498304048 22.91873033476844 H 0.0 **** 0.06
12365 H 57.94467162713489 36.4582241598915 24.218382127130923 H 0.0 **** 0.06
12366 C 94.90857059876879 70.60325297245689 92.85750439050182 C 0.0 **** -0.24
12367 H 95.18392553963176 70.9652703242096 93.84919567791724 H 0.0 **** 0.06
12368 H 95.73880030184387 70.76519581016314 92.1693331887212 H 0.0 **** 0.06
12369 H 94.03181971048909 71.14470282448207 92.50436526739546 H 0.0 **** 0.06
12370 H 94.68259403442337 69.538578965407 92.91076979041162 H 0.0 **** 0.06
12371 C 20.993302573340696 44.25305743462344 29.74783647851381 C 0.0 **** -0.24
12372 H 21.33122627308234 45.07892352476111 29.122666816529616 H 0.0 **** 0.06
12373 H 21.824882587363863 43.892407666092424 30.354738379751595 H 0.0 **** 0.06
12374 H 20.628618493541904 43.443819301175836 29.11484786915875 H 0.0 **** 0.06
12375 H 20.18913927072555 44.595476956884596 30.399047379601598 H 0.0 **** 0.06
12376 C 37.65099266611233 62.404811716994914 2.216541610598 C 0.0 **** -0.24
12377 H 37.0283252348884 62.869925963179526 2.9807375241736196 H 0.0 **** 0.06
12378 H 37.10012166790014 62.36122179985307 1.2759377805279826 H 0.0 **** 0.06
12379 H 37.91594598667416 61.3950485875601 2.5295903833392828 H 0.0 **** 0.06
12380 H 38.55840284086864 62.99249503229544 2.0793430092676886 H 0.0 **** 0.06
12381 C 39.86768204201764 23.075685340680337 72.7445564501302 C 0.0 **** -0.24
12382 H 39.2096241961118 22.761127236394856 73.554791897965 H 0.0 **** 0.06
12383 H 39.93148745228079 24.163513429423176 72.72931557330796 H 0.0 **** 0.06
12384 H 39.46960962842405 22.720933962607063 71.79453374927496 H 0.0 **** 0.06
12385 H 40.86181767261475 22.65553785915708 72.90133624979293 H 0.0 **** 0.06
12386 C 69.12628319061605 16.637867227592523 57.61879647544944 C 0.0 **** -0.24
12387 H 69.12614140355231 16.25965644509958 58.640987731116674 H 0.0 **** 0.06
12388 H 69.25126594422028 17.720544855202434 57.63246577579545 H 0.0 **** 0.06
12389 H 68.18112035654784 16.3855579309148 57.137580669766436 H 0.0 **** 0.06
12390 H 69.94841896598265 16.184402452598988 57.06411736368971 H 0.0 **** 0.06
12391 C 36.351952322364326 46.24869772907811 92.1077686152424 C 0.0 **** -0.24
12392 H 35.894964197793755 46.91032751203874 91.37068220558115 H 0.0 **** 0.06
12393 H 37.433590479647954 46.24765647866838 91.97223185227477 H 0.0 **** 0.06
12394 H 35.966513279897484 45.23767965006422 91.97510139785314 H 0.0 **** 0.06
12395 H 36.110345658877314 46.601222408999384 93.11043753051976 H 0.0 **** 0.06
12396 C 78.3766750569697 94.71554997617386 73.03164145044582 C 0.0 **** -0.24
12397 H 78.57909850058076 93.64440228432622 73.04872334240827 H 0.0 **** 0.06
12398 H 77.72883596529542 94.94906887162446 72.18551737990606 H 0.0 **** 0.06
12399 H 79.31501168397838 95.26060276351853 72.93313167696522 H 0.0 **** 0.06
12400 H 77.88317940906424 95.00655293717625 73.95875131021802 H 0.0 **** 0.06
12401 C 16.232073132151488 101.48817831950353 24.158608538240145 C 0.0 **** -0.24
12402 H 15.338282281182408 101.6202877283524 24.768045481081543 H 0.0 **** 0.06
12403 H 16.256715713386093 102.2519359882184 23.37925846359704 H 0.0 **** 0.06
12404 H 16.215991699050814 100.50037683685804 23.69889888526714 H 0.0 **** 0.06
12405 H 17.11752207890693 101.58306963827923 24.78777404408214 H 0.0 **** 0.06
12406 C 60.41709745436117 88.23214440560594 18.804369705447215 C 0.0 **** -0.24
12407 H 59.83215492081317 88.61056346131213 19.64271250208631 H 0.0 **** 0.06
12408 H 61.21194120701276 87.58639553600071 19.179080603197974 H 0.0 **** 0.06
12409 H 60.854941867152604 89.06862846461613 18.260036115830786 H 0.0 **** 0.06
12410 H 59.76928032828047 87.66252257003407 18.137835128381084 H 0.0 **** 0.06
12411 C 75.98484428938292 59.263748018604225 4.947692615135466 C 0.0 **** -0.24
12412 H 75.35380807761067 59.6824168254143 5.731392873633027 H 0.0 **** 0.06
12413 H 75.42230184017251 58.51534836454436 4.38951043920423 H 0.0 **** 0.06
12414 H 76.8614665572428 58.79829408018927 5.398389218503681 H 0.0 **** 0.06
12415 H 76.30176584411117 60.05856307042958 4.2731697487378995 H 0.0 **** 0.06
12416 C 51.783314394182575 77.06821898744585 37.470860096509824 C 0.0 **** -0.24
12417 H 51.573922656626046 78.13270897083038 37.575351980740265 H 0.0 **** 0.06
12418 H 50.975547965660795 76.49186575067534 37.92281007158297 H 0.0 **** 0.06
12419 H 52.72285743944938 76.83267453378636 37.97193108325055 H 0.0 **** 0.06
12420 H 51.86260771265216 76.81601746561802 36.413523661118035 H 0.0 **** 0.06
12421 C 4.54456285840125 108.96143028558136 49.986498295510394 C 0.0 **** -0.24
12422 H 4.14028205935918 108.2520873089406 49.265466482293064 H 0.0 **** 0.06
12423 H 4.582051873102458 108.49573625052956 50.97209715851549 H 0.0 **** 0.06
12424 H 3.9056074103195755 109.84314271341447 50.02619050733594 H 0.0 **** 0.06
12425 H 5.550623980462532 109.25409112036218 49.68457596581655 H 0.0 **** 0.06
12426 C 11.173124391265674 28.719535016291395 69.25727225307645 C 0.0 **** -0.24
12427 H 12.121625666292118 28.806683732542275 68.72875476434794 H 0.0 **** 0.06
12428 H 11.093856875794458 29.518147512693638 69.99535976348858 H 0.0 **** 0.06
12429 H 11.124397869959466 27.753107682339007 69.75926960214514 H 0.0 **** 0.06
12430 H 10.3518930859304 28.800141126290065 68.54413252877964 H 0.0 **** 0.06
12431 C 56.859406506510396 12.929318429344423 103.75056147505302 C 0.0 **** -0.24
12432 H 56.102251006972196 13.700176211925271 103.60682831317303 H 0.0 **** 0.06
12433 H 57.02289418623405 12.774353831126874 104.81783943287513 H 0.0 **** 0.06
12434 H 57.79205252770172 13.24605178172958 103.28281066552165 H 0.0 **** 0.06
12435 H 56.521042996283406 11.99883505874481 103.29493859465148 H 0.0 **** 0.06
12436 C 14.029224872591811 45.46243977008791 102.11629021725108 C 0.0 **** -0.24
12437 H 14.443176747558994 44.52760899678319 102.49504039219329 H 0.0 **** 0.06
12438 H 13.484192446356644 45.96743800727313 102.91310999754197 H 0.0 **** 0.06
12439 H 13.351602856746638 45.2507898033885 101.28899697978292 H 0.0 **** 0.06
12440 H 14.839221724694625 46.10283720962917 101.76654797989633 H 0.0 **** 0.06
12441 C 38.843675361323506 17.155783538233578 42.77788608216349 C 0.0 **** -0.24
12442 H 38.61341889374387 17.998352141970912 43.42998155107517 H 0.0 **** 0.06
12443 H 38.280071612571675 16.28065551484781 43.10259856126294 H 0.0 **** 0.06
12444 H 39.911002375461095 16.939744746977794 42.82738039501021 H 0.0 **** 0.06
12445 H 38.57084510597721 17.40460357093339 41.75232251306244 H 0.0 **** 0.06
12446 C 104.9612334127801 40.62412289086677 110.54517845709468 C 0.0 **** -0.24
12447 H 104.39936419734832 39.7052943299195 110.71161590496854 H 0.0 **** 0.06
12448 H 105.99628300764408 40.379087833084355 110.30749056745216 H 0.0 **** 0.06
12449 H 104.93026340132411 41.23622700894268 111.44705031486046 H 0.0 **** 0.06
12450 H 104.51848706084448 41.17559236829632 109.71583325470537 H 0.0 **** 0.06
12451 C 99.00191486015737 41.537074344775675 73.78965609124518 C 0.0 **** -0.24
12452 H 100.0874581864598 41.55527112474518 73.68732810758976 H 0.0 **** 0.06
12453 H 98.63618820710931 42.549774924971814 73.95595664997396 H 0.0 **** 0.06
12454 H 98.727251771987 40.906497136307834 74.63477496806968 H 0.0 **** 0.06
12455 H 98.55891603083285 41.136032059038826 72.87814882188576 H 0.0 **** 0.06
12456 C 105.39142260192202 6.77726179010962 59.58478641181613 C 0.0 **** -0.24
12457 H 104.86524745377665 7.1967921787831415 60.44149889774369 H 0.0 **** 0.06
12458 H 104.99649000347648 7.213232702148375 58.666796742579784 H 0.0 **** 0.06
12459 H 105.24864300043797 5.696241086548213 59.56454567930354 H 0.0 **** 0.06
12460 H 106.45542071562656 7.001390311351827 59.666535179925155 H 0.0 **** 0.06
12461 C 25.85821782545105 99.09176232586108 30.915611425478573 C 0.0 **** -0.24
12462 H 25.33045306503638 98.89734593505898 29.982233698225684 H 0.0 **** 0.06
12463 H 25.27400781878498 98.70645071039925 31.751089731061576 H 0.0 **** 0.06
12464 H 26.0001091662117 100.16573959130736 31.035261154263473 H 0.0 **** 0.06
12465 H 26.829671547431275 98.59740003331737 30.892807703235086 H 0.0 **** 0.06
12466 C 5.617138476062436 94.6466681470502 53.27638737447748 C 0.0 **** -0.24
12467 H 4.776724001412134 95.05632872093187 52.716648974598286 H 0.0 **** 0.06
12468 H 5.966907991383877 93.73481792328354 52.79054074769287 H 0.0 **** 0.06
12469 H 5.2995445839849395 94.41825353082649 54.293763544827485 H 0.0 **** 0.06
12470 H 6.426147889584868 95.3767834350277 53.30418734066365 H 0.0 **** 0.06
12471 C 69.66122834634407 59.48613342210939 65.74571988114388 C 0.0 **** -0.24
12472 H 69.43230155417135 60.11330515246442 64.88458662270608 H 0.0 **** 0.06
12473 H 69.3303597964919 59.984142884153414 66.65712427578433 H 0.0 **** 0.06
12474 H 70.73705332859646 59.31457858021878 65.79427907270536 H 0.0 **** 0.06
12475 H 69.14611389624235 58.53021749437801 65.64550365404563 H 0.0 **** 0.06
12476 C 103.26580609243968 77.84041766690757 49.995058778804236 C 0.0 **** -0.24
12477 H 102.43886233890689 77.13445460620659 50.068710317397944 H 0.0 **** 0.06
12478 H 103.62512183418576 77.87318843316146 48.96646378112766 H 0.0 **** 0.06
12479 H 104.07531523951332 77.52198567685303 50.65293831034634 H 0.0 **** 0.06
12480 H 102.92500233673104 78.83184574007603 50.29431384639065 H 0.0 **** 0.06
12481 C 85.03774539906615 16.01602645107215 31.137196072677796 C 0.0 **** -0.24
12482 H 84.19717253295448 15.495448851221227 30.678850588345284 H 0.0 **** 0.06
12483 H 85.35545856651666 16.834636731366487 30.49072798219744 H 0.0 **** 0.06
12484 H 85.86513058410557 15.318840503649199 31.274451228349903 H 0.0 **** 0.06
12485 H 84.73438600614955 16.4140196244731 32.10529724323291 H 0.0 **** 0.06
12486 C 10.480498657227315 88.43612775272726 77.13121285403372 C 0.0 **** -0.24
12487 H 9.667292657434487 87.80803289542135 76.76578938447474 H 0.0 **** 0.06
12488 H 10.92811593431523 87.97404210937495 78.01150658955993 H 0.0 **** 0.06
12489 H 10.089112763354706 89.41784834118766 77.39622626168628 H 0.0 **** 0.06
12490 H 11.235049136160214 88.54367421087622 76.3528423456041 H 0.0 **** 0.06
12491 C 83.14569596459685 23.518520697855024 105.88995911505745 C 0.0 **** -0.24
12492 H 82.11265609141307 23.195166937675822 106.01600802769093 H 0.0 **** 0.06
12493 H 83.6096538519144 22.94649174099652 105.08500043712826 H 0.0 **** 0.06
12494 H 83.69454720081734 23.353059312724753 106.81639431078052 H 0.0 **** 0.06
12495 H 83.1660842738427 24.579346691647743 105.63998926498516 H 0.0 **** 0.06
12496 C 71.0480503477493 91.21223845036025 100.92816359202448 C 0.0 **** -0.24
12497 H 71.98532081178652 91.5069195405002 101.40068930551064 H 0.0 **** 0.06
12498 H 71.19090338658015 91.14362688273025 99.84957707613506 H 0.0 **** 0.06
12499 H 70.28151107163563 91.95677369927756 101.14643469300873 H 0.0 **** 0.06
12500 H 70.73455777569487 90.24360195260971 101.31629640427659 H 0.0 **** 0.06
12501 C 29.399157207698437 14.466197068813074 59.31726409059896 C 0.0 **** -0.24
12502 H 30.05405243894822 13.707722952750089 58.888388069800435 H 0.0 **** 0.06
12503 H 29.03317864097906 15.119452968066042 58.524718288286 H 0.0 **** 0.06
12504 H 29.955449090459922 15.055855034056123 60.046549539944984 H 0.0 **** 0.06
12505 H 28.555712958204793 13.983109857494782 59.80915925853839 H 0.0 **** 0.06
12506 C 86.71317312539867 111.44197900034273 23.57343916791058 C 0.0 **** -0.24
12507 H 86.95212148177478 111.87801491804403 24.5433369672254 H 0.0 **** 0.06
12508 H 87.04525840273453 110.40430022877074 23.550955957998497 H 0.0 **** 0.06
12509 H 87.2196781152632 112.0039854724331 22.787928578986055 H 0.0 **** 0.06
12510 H 85.63638403770295 111.48331567901674 23.412275041294038 H 0.0 **** 0.06
12511 C 67.80884613557015 7.985262157799923 47.407899983258915 C 0.0 **** -0.24
12512 H 67.48386489734315 7.336043781144554 48.22147304988124 H 0.0 **** 0.06
12513 H 68.89581231914491 8.065071665521884 47.42007959281938 H 0.0 **** 0.06
12514 H 67.37025357005905 8.975054032986577 47.53737984844611 H 0.0 **** 0.06
12515 H 67.48491010387022 7.564801718631145 46.45636869045205 H 0.0 **** 0.06
12516 C 59.552622448279244 7.226099891747651 81.78101054876933 C 0.0 **** -0.24
12517 H 58.934355818937554 8.123467861001302 81.80625922769627 H 0.0 **** 0.06
12518 H 60.10894826742827 7.141745338066016 82.71524946706253 H 0.0 **** 0.06
12519 H 60.2507400442367 7.289746710175763 80.94666034434971 H 0.0 **** 0.06
12520 H 58.91701522906656 6.3503787111521035 81.65676415882686 H 0.0 **** 0.06
12521 C 32.67909979082205 98.20900543552219 35.09702834612381 C 0.0 **** -0.24
12522 H 32.88048518649572 99.27119416581652 34.95802325796973 H 0.0 **** 0.06
12523 H 33.5469847070232 97.73172468470662 35.55148320143532 H 0.0 **** 0.06
12524 H 32.47556743930531 97.74894907458753 34.13003707469889 H 0.0 **** 0.06
12525 H 31.812913696223774 98.08574813059087 35.746764945920376 H 0.0 **** 0.06
12526 C 48.68808307145042 46.68018085757171 39.01115672393286 C 0.0 **** -0.24
12527 H 47.899108521907294 46.694951485108106 39.763867455090235 H 0.0 **** 0.06
12528 H 48.26114323313311 46.899729023305184 38.0328207183922 H 0.0 **** 0.06
12529 H 49.15348076371822 45.6958480135321 38.99255290051917 H 0.0 **** 0.06
12530 H 49.438565408347415 47.43252022140601 39.257281144695696 H 0.0 **** 0.06
12531 C 63.80338977163972 65.60712742461737 12.55792275969884 C 0.0 **** -0.24
12532 H 63.33779165129091 66.11767703331151 13.400453964848964 H 0.0 **** 0.06
12533 H 64.87530635586785 65.51561351231607 12.736980029761696 H 0.0 **** 0.06
12534 H 63.63377572901941 66.18034537429855 11.64657176397742 H 0.0 **** 0.06
12535 H 63.36660132663433 64.61454130015744 12.449894959313156 H 0.0 **** 0.06
12536 C 75.16482011605558 54.30488975613477 46.586852499669476 C 0.0 **** -0.24
12537 H 74.28187816386122 53.7955952703698 46.973024773636425 H 0.0 **** 0.06
12538 H 75.69466631898035 53.643035079983605 45.901319265598666 H 0.0 **** 0.06
12539 H 75.82109547576118 54.57231835205869 47.41468639317443 H 0.0 **** 0.06
12540 H 74.86025928125116 55.20872695713467 46.05734092018353 H 0.0 **** 0.06
12541 C 55.644886277924854 107.8890840077327 14.746523017329366 C 0.0 **** -0.24
12542 H 56.623400472120366 108.37036238034165 14.734458381973965 H 0.0 **** 0.06
12543 H 55.66283382160985 107.01591244458925 14.094512523996087 H 0.0 **** 0.06
12544 H 54.89041162231503 108.59143199900987 14.39377293874773 H 0.0 **** 0.06
12545 H 55.40613023517966 107.57906333516999 15.763958585368158 H 0.0 **** 0.06
12546 C 89.09876656966628 72.07076379729537 30.43807123246941 C 0.0 **** -0.24
12547 H 89.61595517855474 72.26640845123282 31.377366446007045 H 0.0 **** 0.06
12548 H 89.76888270926966 71.54426322005591 29.758280892233245 H 0.0 **** 0.06
12549 H 88.7914395007042 73.01475790391345 29.988834603787552 H 0.0 **** 0.06
12550 H 88.2194369139527 71.45531774396991 30.629606958932534 H 0.0 **** 0.06
12551 C 59.28203717877697 3.713076125578141 95.36559770940096 C 0.0 **** -0.24
12552 H 59.498266519177115 2.71221734228601 95.7401574452685 H 0.0 **** 0.06
12553 H 58.289957762119734 3.724913160438007 94.91380713118642 H 0.0 **** 0.06
12554 H 60.02643444553177 3.9893591160983704 94.61893259002397 H 0.0 **** 0.06
12555 H 59.31475265481479 4.423734825238569 96.19124853334259 H 0.0 **** 0.06
12556 C 108.91091832844641 54.86470812289896 96.04263961043347 C 0.0 **** -0.24
12557 H 108.0286158566547 54.36064048673842 95.6498095129086 H 0.0 **** 0.06
12558 H 108.74010869472534 55.94090682276522 96.054755074023 H 0.0 **** 0.06
12559 H 109.76917921323934 54.6401794075138 95.40826702595947 H 0.0 **** 0.06
12560 H 109.10747625016384 54.515704794675216 97.05666627834498 H 0.0 **** 0.06
12561 C 63.441836158323696 46.35241506974256 39.56409232238812 C 0.0 **** -0.24
12562 H 62.40833568991158 46.58196151641971 39.82662364061483 H 0.0 **** 0.06
12563 H 64.11246592820243 46.9999159208777 40.13020081675441 H 0.0 **** 0.06
12564 H 63.59007609500057 46.51882623292806 38.49711311162284 H 0.0 **** 0.06
12565 H 63.65391915954558 45.310709443950316 39.80363051514334 H 0.0 **** 0.06
12566 C 32.35700255255168 90.07299993086664 63.88591224653502 C 0.0 **** -0.24
12567 H 32.52688895776228 89.12145578991846 64.38878071264642 H 0.0 **** 0.06
12568 H 31.28532992312924 90.26114141358937 63.81774354716841 H 0.0 **** 0.06
12569 H 32.784667350772764 90.03714991548188 62.884469822897536 H 0.0 **** 0.06
12570 H 32.831433851809635 90.87333114285553 64.45458907434622 H 0.0 **** 0.06
12571 C 111.26534648350365 40.06975033357108 84.09430150507248 C 0.0 **** -0.24
12572 H 110.68449952988665 39.222577102462395 83.72750754528033 H 0.0 **** 0.06
12573 H 112.22406030566754 40.103515321711996 83.5756877889389 H 0.0 **** 0.06
12574 H 111.43419601700538 39.95785349094294 85.16511722088686 H 0.0 **** 0.06
12575 H 110.71736187142635 40.993314112475616 83.90706044905758 H 0.0 **** 0.06
12576 C 12.71797237852735 28.28144138096397 95.5063595356481 C 0.0 **** -0.24
12577 H 12.024080263969672 27.564731239878995 95.06678165524403 H 0.0 **** 0.06
12578 H 13.736346452581369 28.03217224108883 95.20748070358903 H 0.0 **** 0.06
12579 H 12.638150296556915 28.24426567052018 96.59341053122245 H 0.0 **** 0.06
12580 H 12.471899441532997 29.284735053306576 95.15875732143928 H 0.0 **** 0.06
12581 C 107.88160702136243 17.12078424745819 69.45281088982739 C 0.0 **** -0.24
12582 H 108.0377621525912 16.068175571356587 69.68831656782115 H 0.0 **** 0.06
12583 H 106.8220465970025 17.359958371463318 69.5397177182754 H 0.0 **** 0.06
12584 H 108.21635420799755 17.318246180476184 68.43434807375917 H 0.0 **** 0.06
12585 H 108.45236123827095 17.736857013506786 70.14808881655568 H 0.0 **** 0.06
12586 C 102.27900276240828 48.31047093133273 39.60267305527847 C 0.0 **** -0.24
12587 H 103.05494833277965 48.67545306596483 38.9288585611349 H 0.0 **** 0.06
12588 H 102.1147083259628 49.03936891952671 40.39559700427063 H 0.0 **** 0.06
12589 H 102.5944698935078 47.36267511982223 40.03862714307317 H 0.0 **** 0.06
12590 H 101.35469508061766 48.163940810961265 39.04517997146519 H 0.0 **** 0.06
12591 C 32.048798935043834 19.027012481855678 22.921934411385564 C 0.0 **** -0.24
12592 H 31.47913752214606 19.95177626060439 23.012533566876726 H 0.0 **** 0.06
12593 H 31.469758243936866 18.298024698000233 22.35462135457803 H 0.0 **** 0.06
12594 H 32.25923457780203 18.63070733869864 23.915434023536335 H 0.0 **** 0.06
12595 H 32.98706539629032 19.227541630119703 22.405148700551308 H 0.0 **** 0.06
12596 C 65.86852769238271 100.29017395669575 9.998211454169294 C 0.0 **** -0.24
12597 H 66.21224708464808 99.28885697464159 9.73720050405997 H 0.0 **** 0.06
12598 H 65.38497387288561 100.26475949517058 10.97487373558279 H 0.0 **** 0.06
12599 H 65.15587439207212 100.63552595145214 9.248437667553105 H 0.0 **** 0.06
12600 H 66.72035801694847 100.970074154294 10.030495437974622 H 0.0 **** 0.06
12601 C 28.039887046802114 90.34455827106112 28.524352626882774 C 0.0 **** -0.24
12602 H 27.331850714844933 89.68418768953913 29.02601854406788 H 0.0 **** 0.06
12603 H 27.594835024658472 90.72211063816559 27.603749944538947 H 0.0 **** 0.06
12604 H 28.94870906504341 89.78962067110828 28.287396301502355 H 0.0 **** 0.06
12605 H 28.284506561460297 91.18010696503953 29.180181157912926 H 0.0 **** 0.06
12606 C 104.71028582426189 38.69985319131561 30.49848917387854 C 0.0 **** -0.24
12607 H 105.78791090104977 38.77232214095824 30.64669462935848 H 0.0 **** 0.06
12608 H 104.3662296765963 37.7143477152126 30.814176960887266 H 0.0 **** 0.06
12609 H 104.47798428106287 38.844971824930184 29.443399143304816 H 0.0 **** 0.06
12610 H 104.20990820534598 39.46681552047471 31.089142522766906 H 0.0 **** 0.06
12611 C 41.94718034648219 29.979335267116397 12.118850265335425 C 0.0 **** -0.24
12612 H 41.47543153372847 30.3283412027138 11.200095496803385 H 0.0 **** 0.06
12613 H 41.94951613164892 28.88903791587714 12.135180352819873 H 0.0 **** 0.06
12614 H 41.3919761674297 30.355339954195387 12.977156786066189 H 0.0 **** 0.06
12615 H 42.973710084785196 30.345290645391202 12.161591664764615 H 0.0 **** 0.06
12616 C 37.11494924164062 88.59217844818386 31.873220268545822 C 0.0 **** -0.24
12617 H 37.996102571205014 87.99100514785317 32.09759020191809 H 0.0 **** 0.06
12618 H 36.89334627921313 89.24137882036976 32.72050263799152 H 0.0 **** 0.06
12619 H 36.265986288304454 87.93500230052683 31.68643223141303 H 0.0 **** 0.06
12620 H 37.305489301558396 89.20048655389456 30.98850326374462 H 0.0 **** 0.06
12621 C 60.105010796397295 59.50195742201578 73.09278878660615 C 0.0 **** -0.24
12622 H 61.003816311433354 58.88637631750112 73.04447732182084 H 0.0 **** 0.06
12623 H 59.39768706498151 59.05661870644917 73.79270662513193 H 0.0 **** 0.06
12624 H 59.65051177363233 59.55903101875447 72.103309288286 H 0.0 **** 0.06
12625 H 60.36845669501267 60.5039518997379 73.42948395837186 H 0.0 **** 0.06
12626 C 94.21117489632022 16.973306223630175 98.63681788636643 C 0.0 **** -0.24
12627 H 94.28330489976014 16.732703728723777 97.57679948370671 H 0.0 **** 0.06
12628 H 93.30791926382153 16.52361198564884 99.05060142037706 H 0.0 **** 0.06
12629 H 94.16910789461244 18.055115141536362 98.76160649432799 H 0.0 **** 0.06
12630 H 95.08402818279782 16.581146545626723 99.15894653624778 H 0.0 **** 0.06
12631 C 73.56278207117262 83.13877563690136 68.43445553651969 C 0.0 **** -0.24
12632 H 72.75857080286292 83.74233764185107 68.8541857850658 H 0.0 **** 0.06
12633 H 73.94497372991435 83.61920523261904 67.53321562020344 H 0.0 **** 0.06
12634 H 73.18165641873236 82.14912532893294 68.18478408805697 H 0.0 **** 0.06
12635 H 74.36592733318125 83.04443434420244 69.1656366527524 H 0.0 **** 0.06
12636 C 41.064420025598054 36.60590466263773 36.86314915585294 C 0.0 **** -0.24
12637 H 40.38772132997099 36.231708649774305 36.09516635102429 H 0.0 **** 0.06
12638 H 42.05779727157875 36.18379536145221 36.70899724786574 H 0.0 **** 0.06
12639 H 40.69442799409694 36.314197981381085 37.84612041945573 H 0.0 **** 0.06
12640 H 41.11820030141729 37.69225437750424 36.802450795689026 H 0.0 **** 0.06
12641 C 83.13296526847321 97.94733450983634 9.001619399579369 C 0.0 **** -0.24
12642 H 83.42902252511595 97.21777138433069 8.247592770639798 H 0.0 **** 0.06
12643 H 82.13206958457263 98.31550747923004 8.776446397028465 H 0.0 **** 0.06
12644 H 83.83584220220817 98.77981527068195 8.996707088725941 H 0.0 **** 0.06
12645 H 83.13513153592316 97.47552519894452 9.98362378107791 H 0.0 **** 0.06
12646 C 89.56421247121679 26.472384612484944 96.430868610559 C 0.0 **** -0.24
12647 H 90.17192848413572 25.702113101148072 95.95663722839475 H 0.0 **** 0.06
12648 H 89.22879285701717 27.18626863547317 95.67791992132132 H 0.0 **** 0.06
12649 H 90.15835815379643 26.990689590835984 97.1838548503622 H 0.0 **** 0.06
12650 H 88.69889405862719 26.010675919523806 96.90589544028168 H 0.0 **** 0.06
12651 C 60.24465143289391 110.14072445986137 95.74704399964165 C 0.0 **** -0.24
12652 H 59.65983756340977 111.0241536967756 95.49046083236843 H 0.0 **** 0.06
12653 H 59.64340362681582 109.24655660789251 95.58314980754514 H 0.0 **** 0.06
12654 H 60.53983220611119 110.19339187094356 96.79581325080883 H 0.0 **** 0.06
12655 H 61.136111805259084 110.10044161021703 95.12119251467749 H 0.0 **** 0.06
12656 C 28.6831645218532 26.66093676366072 25.13641419559852 C 0.0 **** -0.24
12657 H 28.45150344304625 27.7016584470423 24.911238983228714 H 0.0 **** 0.06
12658 H 29.117624218236926 26.591908408704256 26.133783363646273 H 0.0 **** 0.06
12659 H 29.393922137609707 26.280259370300627 24.403506510475353 H 0.0 **** 0.06
12660 H 27.768838591813505 26.067954689648545 25.0963916178803 H 0.0 **** 0.06
12661 C 40.802386235450484 99.31295386290384 105.6074803482471 C 0.0 **** -0.24
12662 H 41.19044013598912 100.32441127856475 105.48484067844325 H 0.0 **** 0.06
12663 H 39.98941558803949 99.14751883064073 104.89909240386339 H 0.0 **** 0.06
12664 H 40.43150142095217 99.18717575323831 106.62432874839513 H 0.0 **** 0.06
12665 H 41.60042409814153 98.59389043959456 105.42004554270949 H 0.0 **** 0.06
12666 C 38.06045482888381 111.53191226546657 59.997383184601404 C 0.0 **** -0.24
12667 H 37.30480593313358 112.00009560239332 59.365214221788364 H 0.0 **** 0.06
12668 H 38.92411011733509 111.26042885065144 59.39054904443708 H 0.0 **** 0.06
12669 H 37.64351989662107 110.63707326963065 60.457845710891434 H 0.0 **** 0.06
12670 H 38.36708388307842 112.23174156271665 60.774561381490145 H 0.0 **** 0.06
12671 C 40.843044941355856 60.55147172224901 32.57899685183045 C 0.0 **** -0.24
12672 H 39.84156938989268 60.87507416453716 32.86060030487474 H 0.0 **** 0.06
12673 H 40.90438156025067 60.46304387415359 31.493996499502572 H 0.0 **** 0.06
12674 H 41.05551737600922 59.585293796254454 33.03590168880541 H 0.0 **** 0.06
12675 H 41.571617703634615 61.28511916086028 32.92505551147153 H 0.0 **** 0.06
12676 C 105.92163452479076 32.13672921105842 38.59269249228407 C 0.0 **** -0.24
12677 H 105.922747986758 32.89829444551566 39.37265823284042 H 0.0 **** 0.06
12678 H 105.02196792920898 32.24072652469272 37.98503959620899 H 0.0 **** 0.06
12679 H 105.93900756585487 31.147997530195596 39.04990597005934 H 0.0 **** 0.06
12680 H 106.80218398487818 32.26126831015108 37.96185250269201 H 0.0 **** 0.06
12681 C 69.12897134976114 7.05074189970145 10.039097682495992 C 0.0 **** -0.24
12682 H 69.3093105491246 6.650326894826037 9.041588798308226 H 0.0 **** 0.06
12683 H 68.43164605028886 6.402132747615667 10.570330253488464 H 0.0 **** 0.06
12684 H 68.70479115165551 8.05187675604418 9.958267091507992 H 0.0 **** 0.06
12685 H 70.07076561497277 7.097411707049616 10.586548980438693 H 0.0 **** 0.06
12686 C 58.989938287337 49.88133570577355 110.5882110022734 C 0.0 **** -0.24
12687 H 58.67618655074557 49.54431225685107 109.60043500993982 H 0.0 **** 0.06
12688 H 58.62797747872264 50.896116871726434 110.75641327300849 H 0.0 **** 0.06
12689 H 60.07747865740174 49.867455758003615 110.64841559358258 H 0.0 **** 0.06
12690 H 58.575161910507774 49.21723740127007 111.3470722782548 H 0.0 **** 0.06
12691 C 104.16629644680188 31.876735566270412 3.9524877691134606 C 0.0 **** -0.24
12692 H 103.61305048288489 31.80393243259539 3.0159494524606885 H 0.0 **** 0.06
12693 H 105.22675381838275 32.01082545843107 3.7376983685585685 H 0.0 **** 0.06
12694 H 104.02444346612182 30.963399298811325 4.5294729802868545 H 0.0 **** 0.06
12695 H 103.80074124026012 32.72908350911837 4.524862423038982 H 0.0 **** 0.06
12696 C 31.623084031249846 38.816024397300566 88.33342375146037 C 0.0 **** -0.24
12697 H 31.054904581690153 38.43601837696241 87.48469711875188 H 0.0 **** 0.06
12698 H 30.94810923802254 38.99467310015194 89.17089321492037 H 0.0 **** 0.06
12699 H 32.11140553389663 39.749603166623615 88.05378436189454 H 0.0 **** 0.06
12700 H 32.376208555737435 38.084712168899785 88.62319977663086 H 0.0 **** 0.06
12701 C 1.437856815063995 102.65093638254993 15.733626282009226 C 0.0 **** -0.24
12702 H 0.7795171184599496 103.50008935285629 15.54725158074362 H 0.0 **** 0.06
12703 H 0.8565895278913587 101.72931571469715 15.716075081778996 H 0.0 **** 0.06
12704 H 1.90907615505445 102.76580779718412 16.710440161669624 H 0.0 **** 0.06
12705 H 2.2067253302332546 102.61111760750006 14.96178103639059 H 0.0 **** 0.06
12706 C 108.32099664432275 56.262768462872856 92.798791323073 C 0.0 **** -0.24
12707 H 108.93507581390668 55.36805439941479 92.68862326547972 H 0.0 **** 0.06
12708 H 107.5156101232954 56.064470780940894 93.50630174393606 H 0.0 **** 0.06
12709 H 107.89678821762953 56.533373158735266 91.83222334251059 H 0.0 **** 0.06
12710 H 108.93751479430142 57.08186431440575 93.16903279268632 H 0.0 **** 0.06
12711 C 23.133025292281275 89.67018093233776 8.084777493322699 C 0.0 **** -0.24
12712 H 23.99908832798269 90.3176024580874 8.21879064017192 H 0.0 **** 0.06
12713 H 23.173206211085017 89.20968586193794 7.097312956898499 H 0.0 **** 0.06
12714 H 22.220412310343306 90.25987009031161 8.174786746254416 H 0.0 **** 0.06
12715 H 23.139306712395353 88.89196076984578 8.848866095042734 H 0.0 **** 0.06
12716 C 69.1253819698326 71.2224722516948 35.971162002422005 C 0.0 **** -0.24
12717 H 69.44203661687956 70.98125385562537 36.98636147317325 H 0.0 **** 0.06
12718 H 69.40532946142767 70.40883953904813 35.301149563984325 H 0.0 **** 0.06
12719 H 69.61229933972623 72.14287717044988 35.64934896225273 H 0.0 **** 0.06
12720 H 68.04393061586904 71.3567503534303 35.94995480365182 H 0.0 **** 0.06
12721 C 21.33964781005409 38.11200947219223 85.11573834506464 C 0.0 **** -0.24
12722 H 21.617630015037633 39.071547050907384 84.67923526121564 H 0.0 **** 0.06
12723 H 20.312905580264726 38.16191485282934 85.4792535135405 H 0.0 **** 0.06
12724 H 22.00832094616399 37.88374161961835 85.94611985480395 H 0.0 **** 0.06
12725 H 21.420074094623146 37.33137741001161 84.35960571320913 H 0.0 **** 0.06
12726 C 63.613120708245106 3.038120170741422 61.87517572655825 C 0.0 **** -0.24
12727 H 64.2141754310336 2.8283787098482094 62.76027129241036 H 0.0 **** 0.06
12728 H 63.676726697460424 4.0994438176485914 61.63613649238042 H 0.0 **** 0.06
12729 H 62.5749774455403 2.7707267455687656 62.070367090989684 H 0.0 **** 0.06
12730 H 63.986999396722126 2.4528635549547744 61.03523299437882 H 0.0 **** 0.06
12731 C 14.054293646528436 13.573525219158316 72.0496325827462 C 0.0 **** -0.24
12732 H 14.318600384474934 13.706324425819925 73.09932671892659 H 0.0 **** 0.06
12733 H 13.008123699718169 13.276090903264482 71.97408332282413 H 0.0 **** 0.06
12734 H 14.686004124155602 12.800659545396503 71.61155847597354 H 0.0 **** 0.06
12735 H 14.205980622965114 14.511633683282273 71.51606727246491 H 0.0 **** 0.06
12736 C 42.34190131425635 39.875535349165546 20.14122673274217 C 0.0 **** -0.24
12737 H 42.79608147431827 38.93067543118195 19.84369778168461 H 0.0 **** 0.06
12738 H 41.37394570097291 39.982231863065635 19.651751336703057 H 0.0 **** 0.06
12739 H 42.99149131767027 40.699943965611794 19.846790556240833 H 0.0 **** 0.06
12740 H 42.20608676406391 39.889290136802686 21.222667256340017 H 0.0 **** 0.06
12741 C 109.70013115500267 54.08818476170836 5.368384581850336 C 0.0 **** -0.24
12742 H 109.62003778288476 53.631948010399185 6.35474578984099 H 0.0 **** 0.06
12743 H 109.03250916214047 54.94872149327685 5.311640638481919 H 0.0 **** 0.06
12744 H 109.42067241719306 53.36020609687693 4.607843869824137 H 0.0 **** 0.06
12745 H 110.7274565885918 54.413134872365625 5.2011412936426495 H 0.0 **** 0.06
12746 C 95.3513735753414 50.04313070870063 9.853801568134262 C 0.0 **** -0.24
12747 H 95.42313281251307 50.24903857696236 10.921632048475175 H 0.0 **** 0.06
12748 H 95.99969516732634 49.20345956986256 9.601472547292667 H 0.0 **** 0.06
12749 H 95.66101225347117 50.92390760849577 9.292574120992127 H 0.0 **** 0.06
12750 H 94.32110751824251 49.795399583831255 9.601006289513897 H 0.0 **** 0.06
12751 C 74.91537705474363 59.827668469952584 25.812879630873113 C 0.0 **** -0.24
12752 H 74.77877287496631 60.25093817724439 26.807995423637493 H 0.0 **** 0.06
12753 H 75.96556647126917 59.90316644804625 25.526923754985148 H 0.0 **** 0.06
12754 H 74.30306912526325 60.37729471974373 25.098275999399334 H 0.0 **** 0.06
12755 H 74.61556970254225 58.77974191779961 25.81994231700517 H 0.0 **** 0.06
12756 C 105.3484147764213 16.796282225414842 111.33151686125683 C 0.0 **** -0.24
12757 H 106.0308020034555 16.128227597992407 110.80618737747244 H 0.0 **** 0.06
12758 H 105.06236051746771 16.348047164074245 112.28370631424602 H 0.0 **** 0.06
12759 H 104.45821555498074 16.95743291917239 110.72325934448844 H 0.0 **** 0.06
12760 H 105.84255403380601 17.750876128887143 111.51370712613823 H 0.0 **** 0.06
12761 C 14.56045963786329 56.311862080896844 59.63562766774523 C 0.0 **** -0.24
12762 H 14.600525375973604 55.717724664210294 58.722253757898095 H 0.0 **** 0.06
12763 H 14.620543001213633 57.37071166836532 59.38302529765125 H 0.0 **** 0.06
12764 H 15.39684497212943 56.04368326267428 60.28081683583505 H 0.0 **** 0.06
12765 H 13.62311333924491 56.115144398382256 60.155860741839255 H 0.0 **** 0.06
12766 C 102.10596429665082 10.751720268373418 111.11854499694977 C 0.0 **** -0.24
12767 H 101.32855148813175 10.092821528831475 111.50494265473034 H 0.0 **** 0.06
12768 H 102.91682651753962 10.150950946350381 110.70371104628333 H 0.0 **** 0.06
12769 H 102.49023853226876 11.373897834198303 111.92668716555525 H 0.0 **** 0.06
12770 H 101.68868938844278 11.387310201928372 110.33736032566236 H 0.0 **** 0.06
12771 C 87.46607685507138 28.155468952508897 54.67455277347153 C 0.0 **** -0.24
12772 H 87.28634106301325 28.918933893322134 53.91721021180342 H 0.0 **** 0.06
12773 H 88.04788489948288 27.341848243885096 54.23902177717855 H 0.0 **** 0.06
12774 H 86.51232960147479 27.768596406096606 55.033005254566376 H 0.0 **** 0.06
12775 H 88.01712608272513 28.592222394147427 55.506621576369696 H 0.0 **** 0.06
12776 C 110.344067558934 10.000452967961593 83.69777669501741 C 0.0 **** -0.24
12777 H 110.04163456957309 8.953532043502662 83.68484493533458 H 0.0 **** 0.06
12778 H 109.4601868121357 10.634486935716069 83.61632582878121 H 0.0 **** 0.06
12779 H 111.01137905065508 10.196012665958534 82.85921298854953 H 0.0 **** 0.06
12780 H 110.86139413910183 10.216868811742671 84.63225984633539 H 0.0 **** 0.06
12781 C 21.31807056467261 77.88178747635635 44.56775594203066 C 0.0 **** -0.24
12782 H 20.247258489502784 77.8546045266101 44.76780577737202 H 0.0 **** 0.06
12783 H 21.537554874123103 77.28200620437411 43.684022102902844 H 0.0 **** 0.06
12784 H 21.857795928102973 77.47709376026529 45.424533612874086 H 0.0 **** 0.06
12785 H 21.629705664355143 78.91203154009617 44.39466017382824 H 0.0 **** 0.06
12786 C 25.524911938688177 28.567444729499755 90.17935389665132 C 0.0 **** -0.24
12787 H 25.564565699862356 28.3317690611658 89.11623541556486 H 0.0 **** 0.06
12788 H 26.527434542507137 28.801915350726716 90.53713643195402 H 0.0 **** 0.06
12789 H 25.135190811918932 27.709676172588814 90.72683256745205 H 0.0 **** 0.06
12790 H 24.871344958904217 29.42564365010236 90.3368061904535 H 0.0 **** 0.06
12791 C 86.38774387798603 6.523835595901133 80.03628599826325 C 0.0 **** -0.24
12792 H 86.08239822880412 6.923568145242896 79.06928480186085 H 0.0 **** 0.06
12793 H 85.50296845669166 6.255885177317495 80.61434348236554 H 0.0 **** 0.06
12794 H 86.96143489218176 7.277105832866624 80.5765821949619 H 0.0 **** 0.06
12795 H 87.00479235254872 5.637890993656555 79.88402709793647 H 0.0 **** 0.06
12796 C 49.05712113803864 79.24095455959389 21.31632776821499 C 0.0 **** -0.24
12797 H 48.893862233808456 80.08626001173465 20.648368510021896 H 0.0 **** 0.06
12798 H 49.610946831941895 79.57333669243036 22.19420452207487 H 0.0 **** 0.06
12799 H 49.627794990708445 78.4723221345028 20.795883828239198 H 0.0 **** 0.06
12800 H 48.095055164099946 78.83260693878935 21.625949596775854 H 0.0 **** 0.06
12801 C 81.9963946845788 86.11387884353121 109.24749970510521 C 0.0 **** -0.24
12802 H 82.49252462842622 86.56710042310772 108.39032144673901 H 0.0 **** 0.06
12803 H 80.92044046354988 86.27201838182356 109.16967408799259 H 0.0 **** 0.06
12804 H 82.36560168612581 86.57233580432722 110.16567826988776 H 0.0 **** 0.06
12805 H 82.20636051893749 85.04407845134659 109.26558017511404 H 0.0 **** 0.06
12806 C 99.5713125844569 18.84613225863228 34.74949492036823 C 0.0 **** -0.24
12807 H 100.3928543652784 18.744105776379442 34.03938776401829 H 0.0 **** 0.06
12808 H 99.97107413365808 19.086293455616214 35.73460744356279 H 0.0 **** 0.06
12809 H 99.01647423185702 17.90918605055117 34.79999843047713 H 0.0 **** 0.06
12810 H 98.90704246990003 19.645064860116975 34.42171261493437 H 0.0 **** 0.06
12811 C 45.28868362721522 13.451253230798358 36.83144381067004 C 0.0 **** -0.24
12812 H 44.42946993215139 12.938236058302095 37.26376499903532 H 0.0 **** 0.06
12813 H 45.79021262607921 14.03430483288436 37.60445153018526 H 0.0 **** 0.06
12814 H 44.95140630369562 14.115742973906947 36.03596799267186 H 0.0 **** 0.06
12815 H 45.982466521717214 12.716289672807136 36.42369237362007 H 0.0 **** 0.06
12816 C 96.95410756357214 33.492100454646135 58.153111243314356 C 0.0 **** -0.24
12817 H 97.21416983048616 32.44801399764154 58.32366447714429 H 0.0 **** 0.06
12818 H 96.95779492932905 34.02735587867842 59.10347460268474 H 0.0 **** 0.06
12819 H 95.9619892268563 33.55117196826663 57.70635839133939 H 0.0 **** 0.06
12820 H 97.68384796090939 33.94206314764514 57.479225515448036 H 0.0 **** 0.06
12821 C 104.5352637013803 82.8803498308404 79.12216398169147 C 0.0 **** -0.24
12822 H 105.57211941006125 82.90366097223264 79.4545720240933 H 0.0 **** 0.06
12823 H 103.99727703638695 83.72634235222708 79.54975301800275 H 0.0 **** 0.06
12824 H 104.06940169299313 81.95111244122074 79.4495411783899 H 0.0 **** 0.06
12825 H 104.50112080102556 82.94033502087714 78.03394870951172 H 0.0 **** 0.06
12826 C 86.72348997147083 91.38347613777887 100.29035329718258 C 0.0 **** -0.24
12827 H 87.33442821461952 91.30378018728553 99.39030802186258 H 0.0 **** 0.06
12828 H 85.91945448534929 92.10024272681153 100.12014740506197 H 0.0 **** 0.06
12829 H 87.34223096685923 91.72168033053595 101.12029653420487 H 0.0 **** 0.06
12830 H 86.29710848876559 90.40929969400415 100.52761985902234 H 0.0 **** 0.06
12831 C 57.50809362691233 7.547119513551964 58.579799218723814 C 0.0 **** -0.24
12832 H 57.18628296768753 8.282748655079837 57.84319280414034 H 0.0 **** 0.06
12833 H 58.5326633464092 7.2408661811673465 58.36271324246207 H 0.0 **** 0.06
12834 H 56.85157545861874 6.677600046067511 58.53673847956278 H 0.0 **** 0.06
12835 H 57.46407552519245 7.986307729088473 59.57616936980818 H 0.0 **** 0.06
12836 C 74.46802660211836 40.01922898611466 83.77603294740447 C 0.0 **** -0.24
12837 H 75.2627120464723 39.8049030062629 83.0606499222041 H 0.0 **** 0.06
12838 H 73.63251471943741 39.34172297136755 83.60345886465961 H 0.0 **** 0.06
12839 H 74.13342489982372 41.048584019854744 83.64967523826542 H 0.0 **** 0.06
12840 H 74.8455908785426 39.881639368836815 84.78915075507942 H 0.0 **** 0.06
12841 C 51.6088464622513 6.088134408620419 112.50474259756247 C 0.0 **** -0.24
12842 H 50.822436172704876 5.486513149144571 112.96180077086642 H 0.0 **** 0.06
12843 H 52.36362472067035 6.328722470286436 113.25284386431876 H 0.0 **** 0.06
12844 H 51.17885606596596 7.009278899673916 112.11206786388063 H 0.0 **** 0.06
12845 H 52.06750051107955 5.526729626966983 111.69153939255861 H 0.0 **** 0.06
12846 C 30.6488540436049 55.75961742721765 96.0362702960391 C 0.0 **** -0.24
12847 H 29.85945740875809 55.357420008307685 96.67155968010081 H 0.0 **** 0.06
12848 H 30.513307865259492 55.399944422173775 95.01676213139922 H 0.0 **** 0.06
12849 H 31.618608081993557 55.43185854117232 96.41215946358795 H 0.0 **** 0.06
12850 H 30.60468792555571 56.84881607814427 96.04749799120071 H 0.0 **** 0.06
12851 C 14.438559833846469 81.04081135480024 58.63327288966045 C 0.0 **** -0.24
12852 H 14.219246434574842 81.46301060686338 57.65328782047902 H 0.0 **** 0.06
12853 H 13.529099550687704 80.61203804268942 59.055959435974756 H 0.0 **** 0.06
12854 H 14.810860620789853 81.82449179557798 59.292152553519884 H 0.0 **** 0.06
12855 H 15.193762014246488 80.26161364728208 58.53158231478747 H 0.0 **** 0.06
12856 C 35.48259837247792 6.069676950979613 6.097300539618018 C 0.0 **** -0.24
12857 H 36.29255985692527 6.2874876442562595 5.401883954037004 H 0.0 **** 0.06
12858 H 34.536779587342124 6.036500956647387 5.55533131296842 H 0.0 **** 0.06
12859 H 35.43754322014678 6.8480945836829505 6.858040529293234 H 0.0 **** 0.06
12860 H 35.66260661049984 5.105608656454308 6.573558640472854 H 0.0 **** 0.06
12861 C 37.71276141494829 69.99486932787826 47.028870937674256 C 0.0 **** -0.24
12862 H 37.384258428296874 69.21154230135798 47.71179109057567 H 0.0 **** 0.06
12863 H 38.80279013006668 70.02896335791252 47.01326740643999 H 0.0 **** 0.06
12864 H 37.32454353065796 70.95624058626518 47.36589852129722 H 0.0 **** 0.06
12865 H 37.34033494584057 69.78288662866751 46.026575942440346 H 0.0 **** 0.06
12866 C 40.07527195309294 43.73247069711553 28.402317059881113 C 0.0 **** -0.24
12867 H 41.074375685870336 44.158075817300045 28.319038615251714 H 0.0 **** 0.06
12868 H 40.12741965578071 42.781763532015134 28.933374420648875 H 0.0 **** 0.06
12869 H 39.66565423919309 43.57030382452663 27.405309725940242 H 0.0 **** 0.06
12870 H 39.43189216104868 44.42107247923147 28.9519637998427 H 0.0 **** 0.06
12871 C 29.503211005101974 48.81207298174178 9.543826080578754 C 0.0 **** -0.24
12872 H 28.954707022882218 48.975214663489965 8.616420273113391 H 0.0 **** 0.06
12873 H 30.352175644689055 49.49393335330731 9.588534466604841 H 0.0 **** 0.06
12874 H 29.86062546066063 47.7829177930376 9.578638363874944 H 0.0 **** 0.06
12875 H 28.84393144332077 48.99529076744747 10.392784937155284 H 0.0 **** 0.06
12876 C 8.342582209914125 104.72112951228189 77.4831069585739 C 0.0 **** -0.24
12877 H 9.294378021974197 105.07020475049413 77.88360615164817 H 0.0 **** 0.06
12878 H 7.562955031532388 105.44543684543916 77.71949382752581 H 0.0 **** 0.06
12879 H 8.092110556260307 103.75897597618732 77.92852456444956 H 0.0 **** 0.06
12880 H 8.42148658648509 104.61102434868727 76.40141598646787 H 0.0 **** 0.06
12881 C 22.03999978684425 80.80051405173197 73.92318185949784 C 0.0 **** -0.24
12882 H 21.18760275732498 81.14467388872663 73.33806164954999 H 0.0 **** 0.06
12883 H 22.313408775826247 81.56607045310247 74.64985672157573 H 0.0 **** 0.06
12884 H 22.883753861113348 80.61176242982444 73.25968788186177 H 0.0 **** 0.06
12885 H 21.775544446312466 79.88175367074123 74.44490881890388 H 0.0 **** 0.06
12886 C 108.02680538056683 82.59153044445145 108.27966234500157 C 0.0 **** -0.24
12887 H 109.0851542327822 82.85050391742811 108.22619323002526 H 0.0 **** 0.06
12888 H 107.5119764817393 82.98647934721123 107.40370174523777 H 0.0 **** 0.06
12889 H 107.59395395948233 83.02268350533825 109.18217941262586 H 0.0 **** 0.06
12890 H 107.91967592173944 81.50714471499367 108.30657438667103 H 0.0 **** 0.06
12891 C 82.53291214813643 73.66825028975953 89.83183366689246 C 0.0 **** -0.24
12892 H 83.37726314396255 72.98804994700154 89.7253291431858 H 0.0 **** 0.06
12893 H 81.61904004899648 73.16573292582223 89.5127497369439 H 0.0 **** 0.06
12894 H 82.69701065085724 74.55037697669479 89.21377823196332 H 0.0 **** 0.06
12895 H 82.43733676534347 73.96886809515613 90.87553559352187 H 0.0 **** 0.06
12896 C 110.1892170399216 81.19627105115066 39.02002197560341 C 0.0 **** -0.24
12897 H 110.90006349502444 80.44550338652601 39.36311021374377 H 0.0 **** 0.06
12898 H 109.33006716790902 80.70280403119276 38.56425310937044 H 0.0 **** 0.06
12899 H 110.66926856765339 81.8419628299111 38.28415915529405 H 0.0 **** 0.06
12900 H 109.85668100311544 81.79603738780355 39.86686758029549 H 0.0 **** 0.06
12901 C 41.8291272817703 11.069292862918758 62.828635460301086 C 0.0 **** -0.24
12902 H 41.70441977102434 9.986509437596567 62.803071619153684 H 0.0 **** 0.06
12903 H 41.99211605163478 11.43919046975428 61.815739176504024 H 0.0 **** 0.06
12904 H 42.6874711646336 11.321801172444054 63.44997162964762 H 0.0 **** 0.06
12905 H 40.93200858884134 11.527620908952741 63.24319880403232 H 0.0 **** 0.06
12906 C 43.73422599395738 82.48995784565759 101.82382623067056 C 0.0 **** -0.24
12907 H 44.609830413676235 82.81234120359545 101.25990399322401 H 0.0 **** 0.06
12908 H 43.23766137928021 83.36048499110765 102.252932844734 H 0.0 **** 0.06
12909 H 44.04519770726091 81.81722672751354 102.62367113944256 H 0.0 **** 0.06
12910 H 43.04618805788988 81.96929248036668 101.15786470067613 H 0.0 **** 0.06
12911 C 90.1668125767784 71.57509549264083 91.88342746034414 C 0.0 **** -0.24
12912 H 90.42052447120324 72.53587109018486 92.33083319205838 H 0.0 **** 0.06
12913 H 89.23738932419599 71.20619458772242 92.31915790977482 H 0.0 **** 0.06
12914 H 90.96805565428241 70.8618099917841 92.07658986184663 H 0.0 **** 0.06
12915 H 90.04099533377337 71.69781457459709 90.80758386071702 H 0.0 **** 0.06
12916 C 26.86006335065963 69.94076955174665 111.10014280334323 C 0.0 **** -0.24
12917 H 26.20371447964999 69.10677466890633 110.8481206136228 H 0.0 **** 0.06
12918 H 27.455814093576798 70.20971916817646 110.22796762784365 H 0.0 **** 0.06
12919 H 27.520136106889872 69.64861558712121 111.91700473727246 H 0.0 **** 0.06
12920 H 26.257504698548928 70.79585079555284 111.40753922939258 H 0.0 **** 0.06
12921 C 102.85900206054785 26.746328312180708 103.06993817495402 C 0.0 **** -0.24
12922 H 102.78622303523 25.84598223049585 103.68034259800345 H 0.0 **** 0.06
12923 H 103.85309032896848 26.803106551279484 102.62495029617898 H 0.0 **** 0.06
12924 H 102.68924385754954 27.622524345583088 103.69539963073737 H 0.0 **** 0.06
12925 H 102.10841349945233 26.711822895643564 102.28119328723784 H 0.0 **** 0.06
12926 C 94.52066113832404 107.0308076730229 60.930423907347716 C 0.0 **** -0.24
12927 H 93.50180250218264 106.73930903205311 61.18360557588824 H 0.0 **** 0.06
12928 H 94.95292815978351 107.59574728962413 61.75589698540293 H 0.0 **** 0.06
12929 H 94.50899228211324 107.64898487931475 60.03266326125225 H 0.0 **** 0.06
12930 H 95.11891343468128 106.13809935646304 60.74862888892724 H 0.0 **** 0.06
12931 C 59.66117724882827 55.423166183163715 7.281988434569511 C 0.0 **** -0.24
12932 H 59.78490623784188 54.891110078306866 8.224795828217998 H 0.0 **** 0.06
12933 H 59.85755693901709 54.74359652796633 6.451929663737545 H 0.0 **** 0.06
12934 H 60.36053316828378 56.25819828609508 7.241256739917874 H 0.0 **** 0.06
12935 H 58.64097717403911 55.80093007677141 7.209671948600228 H 0.0 **** 0.06
12936 C 86.02926771386774 94.31955319244489 1.513151152103033 C 0.0 **** -0.24
12937 H 85.1030884150216 94.17033696259 2.068235666333667 H 0.0 **** 0.06
12938 H 86.31282760547643 95.37167546451005 1.5563942622278804 H 0.0 **** 0.06
12939 H 85.88118326521294 94.02494229919924 0.47451128524516495 H 0.0 **** 0.06
12940 H 86.81911128264238 93.71209505366971 1.9542113474550415 H 0.0 **** 0.06
12941 C 72.25309733154532 55.023084851837694 105.31977671283809 C 0.0 **** -0.24
12942 H 72.29301150547505 54.3667164561181 106.18845888498086 H 0.0 **** 0.06
12943 H 71.93844437658308 56.01915394694748 105.63175153120164 H 0.0 **** 0.06
12944 H 71.54055727972056 54.62562770213296 104.59724861137533 H 0.0 **** 0.06
12945 H 73.24131354839136 55.0805692609824 104.86186545096021 H 0.0 **** 0.06
12946 C 60.867504022425976 41.64238311268231 51.88690136215668 C 0.0 **** -0.24
12947 H 60.243331156848086 40.76655364577859 51.71092596033962 H 0.0 **** 0.06
12948 H 61.88671242047647 41.32333111607956 52.10559857718995 H 0.0 **** 0.06
12949 H 60.47316700621147 42.206077735124516 52.73259108029855 H 0.0 **** 0.06
12950 H 60.86745807759152 42.27307795588174 50.99791351026111 H 0.0 **** 0.06
12951 C 37.87595308468178 86.43160106118532 108.75052203651626 C 0.0 **** -0.24
12952 H 38.56432325556625 86.82615360650001 109.49909153057209 H 0.0 **** 0.06
12953 H 37.09129299495069 85.85840642160463 109.24560173621839 H 0.0 **** 0.06
12954 H 38.420086168983744 85.78467529182737 108.06342994293963 H 0.0 **** 0.06
12955 H 37.429749856483795 87.25757489273528 108.1966382045728 H 0.0 **** 0.06
12956 C 30.807549315459568 68.18279283849904 4.988632795855054 C 0.0 **** -0.24
12957 H 30.2639999888016 68.29474559833298 4.050783092048917 H 0.0 **** 0.06
12958 H 31.872433496572825 68.07442739826385 4.7803708018590925 H 0.0 **** 0.06
12959 H 30.44826816085242 67.29820931441046 5.513797902248058 H 0.0 **** 0.06
12960 H 30.64549561561131 69.0637890429891 5.609579387264162 H 0.0 **** 0.06
12961 C 111.13372830646637 30.428330434392535 2.679823536382642 C 0.0 **** -0.24
12962 H 111.35643561436947 29.73111240763876 1.8721349415815496 H 0.0 **** 0.06
12963 H 110.12155366781457 30.814754564252723 2.557887833137457 H 0.0 **** 0.06
12964 H 111.84439145519747 31.255388500784534 2.6511645961201964 H 0.0 **** 0.06
12965 H 111.21361471502786 29.91301964707162 3.6371475988462123 H 0.0 **** 0.06
12966 C 6.098483182199118 104.4930994980482 71.4849551289335 C 0.0 **** -0.24
12967 H 6.979627349049508 104.93557059126121 71.94915083578422 H 0.0 **** 0.06
12968 H 5.5200385369974185 103.95893169635329 72.23834739693933 H 0.0 **** 0.06
12969 H 6.4098197465793305 103.79852605074234 70.70447150757141 H 0.0 **** 0.06
12970 H 5.485482291770069 105.2812579474951 71.04576194140091 H 0.0 **** 0.06
12971 C 50.39429335603057 90.38824704501997 87.08128865935117 C 0.0 **** -0.24
12972 H 49.53321809949125 90.54177602208878 87.7316182964208 H 0.0 **** 0.06
12973 H 51.307430936852484 90.63672210323878 87.62255968031539 H 0.0 **** 0.06
12974 H 50.30624668523882 91.02857263741379 86.20362169104433 H 0.0 **** 0.06
12975 H 50.43026870480708 89.34493061506794 86.76719311462017 H 0.0 **** 0.06
12976 C 80.62460446013566 73.30870210692603 93.50208582846082 C 0.0 **** -0.24
12977 H 79.88651483462831 73.63667324746513 94.2344737456063 H 0.0 **** 0.06
12978 H 81.38536547635073 72.7055016394562 93.99835521770689 H 0.0 **** 0.06
12979 H 81.09299287363996 74.1803793249781 93.04442706587477 H 0.0 **** 0.06
12980 H 80.13312653233248 72.71393532361839 92.73208692262747 H 0.0 **** 0.06
12981 C 8.782201109444202 19.12248010090707 40.28562321947763 C 0.0 **** -0.24
12982 H 7.90112506082238 18.511099473987485 40.08944436830899 H 0.0 **** 0.06
12983 H 8.648630909873958 19.661488529856825 41.2239335862688 H 0.0 **** 0.06
12984 H 8.918110757131444 19.83438891874229 39.47179660162908 H 0.0 **** 0.06
12985 H 9.66009955122766 18.479954218176005 40.356716354333 H 0.0 **** 0.06
12986 C 40.28298461463396 63.00894508303403 62.02053066571562 C 0.0 **** -0.24
12987 H 40.38918621621701 63.73452945469874 61.21326057164338 H 0.0 **** 0.06
12988 H 41.110341879621046 62.3011825323427 61.98360581800318 H 0.0 **** 0.06
12989 H 39.34019237265113 62.47444326376446 61.90523986579415 H 0.0 **** 0.06
12990 H 40.29116587954485 63.528874899263634 62.97848914155646 H 0.0 **** 0.06
12991 C 104.99075059206237 96.10100469165795 89.64383515239399 C 0.0 **** -0.24
12992 H 105.28112922232742 97.08402206094635 89.27176587413874 H 0.0 **** 0.06
12993 H 103.90509585143693 96.00895157281428 89.61655175699292 H 0.0 **** 0.06
12994 H 105.34033808741523 95.98452969629886 90.66955321081403 H 0.0 **** 0.06
12995 H 105.43754734592667 95.32964095057739 89.01740800647991 H 0.0 **** 0.06
12996 C 4.042413468470073 47.191794004160045 13.082879570410725 C 0.0 **** -0.24
12997 H 4.215491235941357 47.324936028815756 12.014657348263313 H 0.0 **** 0.06
12998 H 3.0787128845611846 47.62451215132003 13.350256724692557 H 0.0 **** 0.06
12999 H 4.833134083723451 47.68875429695868 13.643924757581274 H 0.0 **** 0.06
13000 H 4.042217919001985 46.12708572364036 13.319450304152042 H 0.0 **** 0.06
13001 C 48.37276892058141 43.0397505690089 7.326978971082738 C 0.0 **** -0.24
13002 H 48.89958063770101 43.6537708402231 8.056425904202143 H 0.0 **** 0.06
13003 H 47.64306602857238 43.651492072159925 6.796202718523176 H 0.0 **** 0.06
13004 H 47.86000452249996 42.22597129644703 7.840473274038459 H 0.0 **** 0.06
13005 H 49.08809651004619 42.62725702000279 6.6156085404603004 H 0.0 **** 0.06
13006 C 87.32268043931256 95.94723659214543 110.0538305834299 C 0.0 **** -0.24
13007 H 87.8970860941663 95.94980186907276 109.12734476847292 H 0.0 **** 0.06
13008 H 88.00441949070026 95.9066349050259 110.9037551668054 H 0.0 **** 0.06
13009 H 86.66742860607857 95.07629887505547 110.07132123388227 H 0.0 **** 0.06
13010 H 86.72257129523774 96.85486854717269 110.11213663021097 H 0.0 **** 0.06
13011 C 88.79265527839516 75.12695828166912 23.617121808232497 C 0.0 **** -0.24
13012 H 88.4550025109796 75.63122894872211 22.711117861420178 H 0.0 **** 0.06
13013 H 89.71521488708399 74.58530873507002 23.40882655003736 H 0.0 **** 0.06
13014 H 88.02614582712735 74.42703840580009 23.9508460320219 H 0.0 **** 0.06
13015 H 88.97323458839497 75.86643271424396 24.398165432555828 H 0.0 **** 0.06
13016 C 72.72228570571355 37.15704834709042 30.28615623249499 C 0.0 **** -0.24
13017 H 73.71652181138472 37.54516016024228 30.508131892834456 H 0.0 **** 0.06
13018 H 72.79329308792916 36.412907245029814 29.491314423657883 H 0.0 **** 0.06
13019 H 72.07687618611027 37.973647249584666 29.963423924785985 H 0.0 **** 0.06
13020 H 72.30536090522236 36.694645762759116 31.18066947056289 H 0.0 **** 0.06
13021 C 4.353440776183737 34.3525052484367 58.99765406738453 C 0.0 **** -0.24
13022 H 4.5203732452418155 34.88678898269774 58.06210083043209 H 0.0 **** 0.06
13023 H 5.000610710552694 33.47602575384769 59.03590566003231 H 0.0 **** 0.06
13024 H 3.3113599226724695 34.0397606200863 59.05533962263138 H 0.0 **** 0.06
13025 H 4.582366262250634 35.01002302316411 59.83659143868738 H 0.0 **** 0.06
13026 C 76.56326565549529 35.03147802422902 89.64882422110264 C 0.0 **** -0.24
13027 H 75.8492075677049 34.860234110628 88.84432135345241 H 0.0 **** 0.06
13028 H 76.56526276167267 34.17272570749307 90.3212065099066 H 0.0 **** 0.06
13029 H 76.2801444106079 35.92677723057767 90.20243065797592 H 0.0 **** 0.06
13030 H 77.56039486375587 35.16511886630312 89.22764499870291 H 0.0 **** 0.06
13031 C 11.187183794051123 47.993249149395325 81.28703026534725 C 0.0 **** -0.24
13032 H 10.166642915611163 47.96722313651094 81.6675040304433 H 0.0 **** 0.06
13033 H 11.594848104119194 46.98171085590448 81.27116934924169 H 0.0 **** 0.06
13034 H 11.79960779028957 48.62215415039424 81.93443418084217 H 0.0 **** 0.06
13035 H 11.188007103008431 48.402203064623635 80.27634611959564 H 0.0 **** 0.06
13036 C 33.59254925785041 65.1269273197259 110.03702346243158 C 0.0 **** -0.24
13037 H 34.01741200136007 65.29390652806944 109.04708104067268 H 0.0 **** 0.06
13038 H 32.728269781812514 64.46654939926435 109.95422561810709 H 0.0 **** 0.06
13039 H 33.28302408307189 66.07985164142451 110.4651820093028 H 0.0 **** 0.06
13040 H 34.34181802188232 64.6648497132121 110.68043005181102 H 0.0 **** 0.06
13041 C 8.191759792900935 34.65673549767217 81.88672629895675 C 0.0 **** -0.24
13042 H 7.571296577266736 33.91745385899432 81.37811489002843 H 0.0 **** 0.06
13043 H 9.221513584489932 34.56625088350137 81.54032179567969 H 0.0 **** 0.06
13044 H 8.153437042133435 34.48378528417348 82.96263848365754 H 0.0 **** 0.06
13045 H 7.819293363376033 35.656599205424016 81.66504480203744 H 0.0 **** 0.06
13046 C 66.4131837014857 12.06151316995772 11.69143663518463 C 0.0 **** -0.24
13047 H 67.34843526157337 12.477318014134596 12.06782115393446 H 0.0 **** 0.06
13048 H 65.5875871820842 12.718436469948017 11.962970216746328 H 0.0 **** 0.06
13049 H 66.25264541225593 11.075230344977001 12.127776047594352 H 0.0 **** 0.06
13050 H 66.46606754894094 11.974162583255719 10.606093564973946 H 0.0 **** 0.06
13051 C 9.462832442790656 77.0200885244025 61.260496718896405 C 0.0 **** -0.24
13052 H 8.630514374045703 77.02287453741212 60.556860273829415 H 0.0 **** 0.06
13053 H 10.336969544418267 77.47024615283968 60.78964340084241 H 0.0 **** 0.06
13054 H 9.692499720785946 75.9934057461557 61.54752261790853 H 0.0 **** 0.06
13055 H 9.191359808616212 77.59250019644273 62.14747297280604 H 0.0 **** 0.06
13056 C 87.55941270327622 12.844758461167203 53.062198074704725 C 0.0 **** -0.24
13057 H 86.60719507813391 12.828896028548883 53.592284255715754 H 0.0 **** 0.06
13058 H 88.28519582730257 12.236114983828344 53.60170560378879 H 0.0 **** 0.06
13059 H 87.92066673012351 13.871747365590323 52.997647472087806 H 0.0 **** 0.06
13060 H 87.4228185409705 12.444687943795202 52.0573314036576 H 0.0 **** 0.06
13061 C 108.17523460190398 38.88613987896238 67.32491267550895 C 0.0 **** -0.24
13062 H 108.66315597835808 39.5062406696332 66.57417902019591 H 0.0 **** 0.06
13063 H 108.56940599698197 37.87090981848877 67.27038490011839 H 0.0 **** 0.06
13064 H 107.10103909940074 38.86869794874525 67.13885829725041 H 0.0 **** 0.06
13065 H 108.36514705705031 39.297664567967885 68.31590008403148 H 0.0 **** 0.06
13066 C 14.891067606307189 34.71957722618308 102.97402139116429 C 0.0 **** -0.24
13067 H 15.239375663242413 34.05573391333799 102.18237059817102 H 0.0 **** 0.06
13068 H 15.729484200225983 34.987282339778936 103.6171792146072 H 0.0 **** 0.06
13069 H 14.127494964054762 34.211974010655396 103.5645645830364 H 0.0 **** 0.06
13070 H 14.469053846257907 35.6211935581359 102.53153671105892 H 0.0 **** 0.06
13071 C 41.345117775163004 15.882720229316618 18.410500670899495 C 0.0 **** -0.24
13072 H 41.44147786254669 16.415669088826235 19.355746439501473 H 0.0 **** 0.06
13073 H 42.19266990138382 16.122736064077458 17.769376565022498 H 0.0 **** 0.06
13074 H 40.419527548284094 16.18163262752131 17.918017647501784 H 0.0 **** 0.06
13075 H 41.3255921449981 14.809351621324254 18.600387470615118 H 0.0 **** 0.06
13076 C 10.70829737763259 82.7940481601504 60.658441823481496 C 0.0 **** -0.24
13077 H 11.014313140960681 81.76923315556405 60.446578690880244 H 0.0 **** 0.06
13078 H 9.690977589881197 82.79497099802293 61.051642878265625 H 0.0 **** 0.06
13079 H 10.743806076660576 83.37982265486258 59.73984464863713 H 0.0 **** 0.06
13080 H 11.383352937973168 83.23003609277967 61.39474331927835 H 0.0 **** 0.06
13081 C 23.548037003853864 106.94345365788449 106.74001296807526 C 0.0 **** -0.24
13082 H 22.77152293585263 107.45115843918747 106.16731218911858 H 0.0 **** 0.06
13083 H 24.52663698661314 107.2093549480982 106.33864649699541 H 0.0 **** 0.06
13084 H 23.405598683665886 105.86496274838626 106.66689586298139 H 0.0 **** 0.06
13085 H 23.48744166838381 107.2489715600461 107.78408257748728 H 0.0 **** 0.06
13086 C 47.803317405805295 67.18197169832797 23.023488069740324 C 0.0 **** -0.24
13087 H 48.00976302179594 68.2383403421156 23.192824525067834 H 0.0 **** 0.06
13088 H 47.199493172511886 67.07015161939808 22.12223892210116 H 0.0 **** 0.06
13089 H 47.260778042515724 66.77653350825742 23.877448429428853 H 0.0 **** 0.06
13090 H 48.74263411370815 66.64329986188957 22.900772411350772 H 0.0 **** 0.06
13091 C 76.55445801686403 66.2181318015129 33.83708055786556 C 0.0 **** -0.24
13092 H 76.55002075064476 66.38752210038419 32.760533948458345 H 0.0 **** 0.06
13093 H 76.04745501619698 67.04387720919414 34.33772908845549 H 0.0 **** 0.06
13094 H 77.58380152639324 66.15615710328908 34.1902766334336 H 0.0 **** 0.06
13095 H 76.03655477422126 65.28497079318396 34.0597825611149 H 0.0 **** 0.06
13096 C 83.36615729688981 36.82719134143906 94.77607854100106 C 0.0 **** -0.24
13097 H 83.1735181143606 37.51535856392303 93.95236471293202 H 0.0 **** 0.06
13098 H 83.1449573331987 37.32171588435841 95.72123057540045 H 0.0 **** 0.06
13099 H 84.41416681473362 36.52662405868176 94.75856288985997 H 0.0 **** 0.06
13100 H 82.73382304564245 35.946503318534496 94.66875507274631 H 0.0 **** 0.06
13101 C 66.45009392671611 40.32764114733209 17.99328071313738 C 0.0 **** -0.24
13102 H 66.96842941112601 39.69053989804854 17.276986997128233 H 0.0 **** 0.06
13103 H 65.64509316914737 39.763975152171156 18.465728450062528 H 0.0 **** 0.06
13104 H 66.03374731473002 41.19172238420151 17.476087839473053 H 0.0 **** 0.06
13105 H 67.15371738871212 40.66453949756357 18.75592613195127 H 0.0 **** 0.06
13106 C 27.289793558273757 111.15280408832135 52.67895633306183 C 0.0 **** -0.24
13107 H 27.700380559147852 110.79009724394064 53.62092735825062 H 0.0 **** 0.06
13108 H 27.710920254697932 112.13249720688222 52.45228672174522 H 0.0 **** 0.06
13109 H 26.205989811105567 111.23353131200753 52.76234063951846 H 0.0 **** 0.06
13110 H 27.541883608143678 110.45509059045534 51.880270612732836 H 0.0 **** 0.06
13111 C 59.33157042448147 80.49592694329681 105.60098539259798 C 0.0 **** -0.24
13112 H 58.908903679450646 81.38326455161376 106.07297609190567 H 0.0 **** 0.06
13113 H 60.4060756709425 80.4645636954308 105.78176210205979 H 0.0 **** 0.06
13114 H 59.143547575600735 80.53120587351407 104.52806220068982 H 0.0 **** 0.06
13115 H 58.86488686280023 79.604628343065 106.02202069536065 H 0.0 **** 0.06
13116 C 4.164623394941216 31.318572860517577 95.5178350025773 C 0.0 **** -0.24
13117 H 5.183513800840288 30.958385688232 95.65987699749971 H 0.0 **** 0.06
13118 H 4.181184610868968 32.2253715313868 94.91300502487036 H 0.0 **** 0.06
13119 H 3.7187752298827377 31.53613904350908 96.4885449365616 H 0.0 **** 0.06
13120 H 3.5769696584647903 30.553361040963395 95.01027281941509 H 0.0 **** 0.06
13121 C 30.582746253287098 65.22441424399113 94.26421548184905 C 0.0 **** -0.24
13122 H 31.197293254013715 64.70819500315451 95.0014251142452 H 0.0 **** 0.06
13123 H 30.971919157835373 66.23085871478622 94.10819816639804 H 0.0 **** 0.06
13124 H 29.5559896719419 65.28308640502664 94.62611729260033 H 0.0 **** 0.06
13125 H 30.60543939639139 64.67522604205797 93.32352920681467 H 0.0 **** 0.06
13126 C 103.20257473925369 18.473516602137078 5.139133706267302 C 0.0 **** -0.24
13127 H 104.16634763278478 18.520980287255764 4.63217177568032 H 0.0 **** 0.06
13128 H 102.81451923171701 17.456157392197067 5.0859964375852655 H 0.0 **** 0.06
13129 H 102.5033887527238 19.15536344989779 4.655825129665345 H 0.0 **** 0.06
13130 H 103.32687455361017 18.76136125727428 6.184047346943117 H 0.0 **** 0.06
13131 C 29.363163325555263 86.65538075687519 63.17098326905284 C 0.0 **** -0.24
13132 H 28.904965464319957 86.15357903633054 64.02303909051736 H 0.0 **** 0.06
13133 H 28.751812338807767 86.49463470364796 62.282068671914345 H 0.0 **** 0.06
13134 H 30.361104848086697 86.24796936510626 63.00375539003687 H 0.0 **** 0.06
13135 H 29.437142912131776 87.7232694758728 63.37402768949684 H 0.0 **** 0.06
13136 C 60.990476077014364 41.43949330648718 107.914609879012 C 0.0 **** -0.24
13137 H 60.63428302445695 41.4878049691103 106.8857542708962 H 0.0 **** 0.06
13138 H 60.16706232588197 41.160274833546055 108.57116769697427 H 0.0 **** 0.06
13139 H 61.377304797794665 42.41517303795308 108.21095607211049 H 0.0 **** 0.06
13140 H 61.78400686162098 40.696628562106014 107.98967120352393 H 0.0 **** 0.06
13141 C 28.504419631423843 51.800972781546086 101.68524649485772 C 0.0 **** -0.24
13142 H 27.524622681707967 52.10711320242287 102.05192533796759 H 0.0 **** 0.06
13143 H 29.18077221735814 51.662645074350124 102.52911973714646 H 0.0 **** 0.06
13144 H 28.901000252441946 52.571081446644946 101.023232995598 H 0.0 **** 0.06
13145 H 28.410376505650106 50.862974767005795 101.13712236395094 H 0.0 **** 0.06
13146 C 14.357606951114448 77.68843176122164 108.52129641281647 C 0.0 **** -0.24
13147 H 14.94522370951196 76.85710597787704 108.12989193983674 H 0.0 **** 0.06
13148 H 14.846079828118224 78.0908448885258 109.40990624302836 H 0.0 **** 0.06
13149 H 13.360244423425897 77.33635831342787 108.78243353407969 H 0.0 **** 0.06
13150 H 14.282298946759468 78.46863324612855 107.76378750661934 H 0.0 **** 0.06
13151 C 13.268834189733383 0.9728785394740589 60.70726777624605 C 0.0 **** -0.24
13152 H 13.148517787541493 1.505895110612987 59.76371558813667 H 0.0 **** 0.06
13153 H 12.485072605853787 1.280886213149243 61.399682009098605 H 0.0 **** 0.06
13154 H 14.243347807016193 1.2066998532456248 61.1344154310757 H 0.0 **** 0.06
13155 H 13.196440628864309 -0.09999834430494037 60.530121704606024 H 0.0 **** 0.06
13156 C 62.908415208203756 59.26658831691285 83.80389377688886 C 0.0 **** -0.24
13157 H 63.452003011072826 58.325004925908395 83.72473304700173 H 0.0 **** 0.06
13158 H 61.94760202652591 59.17391567214175 83.29633267481938 H 0.0 **** 0.06
13159 H 63.490405450863456 60.06162798108043 83.33935896231631 H 0.0 **** 0.06
13160 H 62.74324458083881 59.50308591565848 84.85448402722824 H 0.0 **** 0.06
13161 C 47.44306250713903 12.744516173775395 49.58611530280223 C 0.0 **** -0.24
13162 H 46.92173088199459 11.9748326716052 50.15455966147283 H 0.0 **** 0.06
13163 H 48.49560207743558 12.754747122786313 49.86786719088016 H 0.0 **** 0.06
13164 H 47.000256029948446 13.71764875679473 49.801059144982304 H 0.0 **** 0.06
13165 H 47.35402596874802 12.532092360102055 48.5211120345179 H 0.0 **** 0.06
13166 C 53.56223289477345 24.17791424398564 0.27752964056332985 C 0.0 **** -0.24
13167 H 53.53337318168002 23.142072465210333 0.6159012218242594 H 0.0 **** 0.06
13168 H 54.57415318894975 24.428405669695167 -0.04087851596568726 H 0.0 **** 0.06
13169 H 53.26441165873991 24.834476999270407 1.0954845844803174 H 0.0 **** 0.06
13170 H 52.87519796391016 24.305784074879853 -0.5581674478150944 H 0.0 **** 0.06
13171 C 54.9431548982609 41.880924713979994 87.87825801787505 C 0.0 **** -0.24
13172 H 54.80592723768015 40.9468929359046 87.33442483209026 H 0.0 **** 0.06
13173 H 54.065718744045796 42.51292830792801 87.74207935258656 H 0.0 **** 0.06
13174 H 55.82572778774991 42.39656061340247 87.4968537344258 H 0.0 **** 0.06
13175 H 55.07706430262559 41.668825999697674 88.93902886935777 H 0.0 **** 0.06
13176 C 38.91364450247107 75.61905564903714 101.22270638619915 C 0.0 **** -0.24
13177 H 38.39723840003927 76.55638050262036 101.42964899795678 H 0.0 **** 0.06
13178 H 38.947914048763266 75.01530592689005 102.13077542777822 H 0.0 **** 0.06
13179 H 39.929657078726336 75.82989317033415 100.88866389421202 H 0.0 **** 0.06
13180 H 38.38132908163726 75.0738505203716 100.44345094948332 H 0.0 **** 0.06
13181 C 5.1003571292472785 22.86539598291455 63.976351293582184 C 0.0 **** -0.24
13182 H 6.0895419486471685 23.14144037460011 63.6123001617965 H 0.0 **** 0.06
13183 H 4.634209811327988 22.1730696562978 63.274776375510385 H 0.0 **** 0.06
13184 H 4.484083122595644 23.761124900254913 64.0669634984427 H 0.0 **** 0.06
13185 H 5.192213299175375 22.388569448111753 64.95184309199985 H 0.0 **** 0.06
13186 C 57.494525248838215 23.89709899987976 22.003690993021394 C 0.0 **** -0.24
13187 H 56.5965259348518 24.089135500260277 21.417449115021952 H 0.0 **** 0.06
13188 H 57.85511579523967 22.88897915512456 21.798722117763816 H 0.0 **** 0.06
13189 H 57.263178773688026 23.991839190788102 23.064435764488678 H 0.0 **** 0.06
13190 H 58.26508270951953 24.61982782859148 21.73506925488391 H 0.0 **** 0.06
13191 C 14.552240196375763 18.813910833781122 29.917545043772023 C 0.0 **** -0.24
13192 H 15.270377448258913 18.930748652424754 30.729365356128447 H 0.0 **** 0.06
13193 H 13.893337008215198 17.9722586093921 30.132213487080527 H 0.0 **** 0.06
13194 H 15.085820440119903 18.628612841686575 28.98456581237867 H 0.0 **** 0.06
13195 H 13.960996924933923 19.724801925902398 29.821601183546527 H 0.0 **** 0.06
13196 C 57.406182239467284 101.96621915404259 63.36005233500049 C 0.0 **** -0.24
13197 H 57.48227856635262 101.79620015375488 64.43415395713214 H 0.0 **** 0.06
13198 H 57.57463792035537 103.0224371386185 63.14642244961939 H 0.0 **** 0.06
13199 H 56.411405109100684 101.68047951507066 63.01748447823704 H 0.0 **** 0.06
13200 H 58.15530798726641 101.3669330797413 62.84370251222106 H 0.0 **** 0.06
13201 C 88.6625963736052 23.502784781665696 62.23675666568528 C 0.0 **** -0.24
13202 H 87.9951205471342 24.24347600603255 61.796381916746896 H 0.0 **** 0.06
13203 H 89.12455742541715 23.916613770461083 63.13290058469511 H 0.0 **** 0.06
13204 H 89.43719158324217 23.238265759150522 61.51613165656289 H 0.0 **** 0.06
13205 H 88.09255597788695 22.611230783546148 62.49945201448634 H 0.0 **** 0.06
13206 C 83.49106420461288 43.18999121159796 40.988146495859695 C 0.0 **** -0.24
13207 H 84.07182399150116 43.63960382880295 40.182633017101395 H 0.0 **** 0.06
13208 H 82.42822983158055 43.351337053922954 40.802827550334285 H 0.0 **** 0.06
13209 H 83.76845862759188 43.650452620383355 41.936304714549976 H 0.0 **** 0.06
13210 H 83.6944519533942 42.120508154270574 41.03005993302503 H 0.0 **** 0.06
13211 C 59.642129909137424 37.753661701302136 47.02448621805427 C 0.0 **** -0.24
13212 H 60.37388117738905 37.015262989029786 46.69719155496372 H 0.0 **** 0.06
13213 H 59.03275366031639 37.3330160344247 47.823698416876255 H 0.0 **** 0.06
13214 H 59.00170887745156 38.026697261113156 46.185100168366986 H 0.0 **** 0.06
13215 H 60.15981303561293 38.640924072663886 47.389253356110785 H 0.0 **** 0.06
13216 C 3.2212654896173287 105.53146686002546 37.90126846427012 C 0.0 **** -0.24
13217 H 2.2751093182877167 105.40206748106789 38.42810882916751 H 0.0 **** 0.06
13218 H 3.5705310664992016 106.55655915820975 38.03155975968724 H 0.0 **** 0.06
13219 H 3.077244499714789 105.32835494363147 36.84041887377646 H 0.0 **** 0.06
13220 H 3.960122566517974 104.84147976076949 38.3078239534571 H 0.0 **** 0.06
13221 C 3.944267435733792 4.924462497822269 103.8580287590288 C 0.0 **** -0.24
13222 H 4.134134636398642 5.105611935262756 102.80007804260939 H 0.0 **** 0.06
13223 H 3.4347484524326433 5.786654811112964 104.2884090751397 H 0.0 **** 0.06
13224 H 4.892221562391001 4.766793888951451 104.37492925084572 H 0.0 **** 0.06
13225 H 3.3182886917987275 4.039359879251487 103.96922376385251 H 0.0 **** 0.06
13226 C 112.45663032352228 74.95024434259255 20.99081667564397 C 0.0 **** -0.24
13227 H 113.44702932029998 75.03840979870091 20.543691305564124 H 0.0 **** 0.06
13228 H 112.51433667469864 75.19623459192547 22.051804538584037 H 0.0 **** 0.06
13229 H 112.09464684087932 73.93001661262934 20.872560170446178 H 0.0 **** 0.06
13230 H 111.77193055566755 75.6389495158 20.495422058125797 H 0.0 **** 0.06
13231 C 68.53376228294528 98.39009138954304 13.287171134904654 C 0.0 **** -0.24
13232 H 68.43580292222231 98.05494754262725 12.255361623866307 H 0.0 **** 0.06
13233 H 67.75439775073843 97.9295474056155 13.894488653365599 H 0.0 **** 0.06
13234 H 68.43334109961904 99.47463036095289 13.327818239730092 H 0.0 **** 0.06
13235 H 69.51271091989025 98.10176923073294 13.671537303211153 H 0.0 **** 0.06
13236 C 2.3089277422438244 86.09876235827744 104.26283275707402 C 0.0 **** -0.24
13237 H 3.0772551708539453 86.61951714403114 103.69197658883763 H 0.0 **** 0.06
13238 H 2.581935572648433 85.04886931297986 104.3654225423864 H 0.0 **** 0.06
13239 H 1.3533732450488003 86.17797142531913 103.74345719603264 H 0.0 **** 0.06
13240 H 2.2224581208157304 86.55034365657619 105.25181496313917 H 0.0 **** 0.06
13241 C 111.74937120526776 65.58325379436113 33.6606095585985 C 0.0 **** -0.24
13242 H 111.38174124869595 66.18691968499806 32.8309848950275 H 0.0 **** 0.06
13243 H 110.98805766575487 65.53512845848286 34.439873375705844 H 0.0 **** 0.06
13244 H 112.6550272147118 66.03558022509901 34.064675618940484 H 0.0 **** 0.06
13245 H 111.97215698170702 64.57704464432902 33.30691055896182 H 0.0 **** 0.06
13246 C 73.12172773394806 11.16243654791539 46.58905687959242 C 0.0 **** -0.24
13247 H 73.42660827443413 12.015743907835784 47.19521512505975 H 0.0 **** 0.06
13248 H 73.35032020352841 10.239253736690742 47.122610468174855 H 0.0 **** 0.06
13249 H 73.66094460898069 11.178193765791121 45.64291463188749 H 0.0 **** 0.06
13250 H 72.05007046822374 11.21774588210127 46.39888078265244 H 0.0 **** 0.06
13251 C 95.15964073007058 16.579172699383662 12.740349003740548 C 0.0 **** -0.24
13252 H 95.38058040977694 16.24547583946662 13.755023604668985 H 0.0 **** 0.06
13253 H 96.04864134095075 16.462516192487726 12.11917860980445 H 0.0 **** 0.06
13254 H 94.86387808368642 17.627379657462825 12.75996874948192 H 0.0 **** 0.06
13255 H 94.34738075328002 15.979133149583731 12.330148251528126 H 0.0 **** 0.06
13256 C 65.9796356014898 25.260287243498123 22.575236048266987 C 0.0 **** -0.24
13257 H 66.38815606979836 24.531077541351607 21.874874937195585 H 0.0 **** 0.06
13258 H 65.24382014184675 24.775937563858495 23.216848363630874 H 0.0 **** 0.06
13259 H 65.50179031859813 26.06769914544008 22.019921429760444 H 0.0 **** 0.06
13260 H 66.7846257191377 25.667139854205203 23.186958397806933 H 0.0 **** 0.06
13261 C 68.74516863136549 103.31721037008572 55.502169217061294 C 0.0 **** -0.24
13262 H 67.70406841329614 103.28019736104696 55.18192751700008 H 0.0 **** 0.06
13263 H 69.23238816726234 104.18205249737224 55.050471663327016 H 0.0 **** 0.06
13264 H 69.25483072695633 102.4075804239265 55.18634611410988 H 0.0 **** 0.06
13265 H 68.78932705966187 103.40025638763319 56.588075188242044 H 0.0 **** 0.06
13266 C 109.50455092486142 21.777295751922395 38.721498561357635 C 0.0 **** -0.24
13267 H 109.91822529375851 22.22842107625813 39.6228280169031 H 0.0 **** 0.06
13268 H 108.60961191856346 21.208704015644315 38.97708432677109 H 0.0 **** 0.06
13269 H 110.2437460477909 21.110184552975625 38.277585697121424 H 0.0 **** 0.06
13270 H 109.2461982110496 22.560545978912103 38.008251482939386 H 0.0 **** 0.06
13271 C 72.11451754531907 22.155656344113794 77.77650998677063 C 0.0 **** -0.24
13272 H 72.68385644840225 22.028203924394802 78.69764109989976 H 0.0 **** 0.06
13273 H 72.09786308870278 21.21400210411545 77.22733029064918 H 0.0 **** 0.06
13274 H 72.58285332311996 22.92641613272349 77.16466007192088 H 0.0 **** 0.06
13275 H 71.09496181944667 22.45299917198102 78.0190252973415 H 0.0 **** 0.06
13276 C 57.434962982970774 81.40809743803439 101.73012532090056 C 0.0 **** -0.24
13277 H 56.74011369103624 82.09385407674486 102.21477331239717 H 0.0 **** 0.06
13278 H 57.54222847266186 80.50915239490445 102.33739159661451 H 0.0 **** 0.06
13279 H 58.40649849815057 81.89129869629946 101.62156779770686 H 0.0 **** 0.06
13280 H 57.052321616074835 81.13867004969651 100.74505378622263 H 0.0 **** 0.06
13281 C 66.91378289383152 75.61365361076417 88.91816051844435 C 0.0 **** -0.24
13282 H 66.71183059866723 75.19009735197915 89.90273140911182 H 0.0 **** 0.06
13283 H 66.01396531211071 76.09886913869579 88.54053957338812 H 0.0 **** 0.06
13284 H 67.21311074532105 74.81897256425302 88.23514350958399 H 0.0 **** 0.06
13285 H 67.7168995788308 76.34679647864121 88.9963560682746 H 0.0 **** 0.06
13286 C 68.2262420511639 23.03246947375382 57.69774756508789 C 0.0 **** -0.24
13287 H 68.63518954432561 23.74244836060356 56.97938743601024 H 0.0 **** 0.06
13288 H 68.35788715672555 22.01772601196611 57.31938427240918 H 0.0 **** 0.06
13289 H 67.1639303900962 23.23087149668984 57.841525124717386 H 0.0 **** 0.06
13290 H 68.74796713452719 23.136502126815707 58.64833288519308 H 0.0 **** 0.06
13291 C 112.5487950552498 112.5774007704264 18.998694810499956 C 0.0 **** -0.24
13292 H 113.3375513876797 113.32764198860342 19.054685470931076 H 0.0 **** 0.06
13293 H 112.49227858400901 112.1861339250569 17.98320108803472 H 0.0 **** 0.06
13294 H 111.59564570020997 113.03314741652046 19.266994448690014 H 0.0 **** 0.06
13295 H 112.77041358022109 111.76530811498704 19.690665980506253 H 0.0 **** 0.06
13296 C 84.91322053355759 9.138572246878795 50.289136924235834 C 0.0 **** -0.24
13297 H 85.2030832039465 8.523762585814552 51.141484344978494 H 0.0 **** 0.06
13298 H 84.34215638831307 9.998421139580415 50.639535298751696 H 0.0 **** 0.06
13299 H 84.30058461646308 8.548045820273728 49.60759148366583 H 0.0 **** 0.06
13300 H 85.80755703142705 9.482927145055186 49.76950788242283 H 0.0 **** 0.06
13301 C 74.61738472210922 21.594887249372277 49.440311843727166 C 0.0 **** -0.24
13302 H 74.14974886531573 22.579958960635366 49.42228711180859 H 0.0 **** 0.06
13303 H 74.80912141644652 21.304191828979953 50.473591887809754 H 0.0 **** 0.06
13304 H 75.55794962331015 21.62870372473037 48.890970899715256 H 0.0 **** 0.06
13305 H 73.95028633090502 20.868170784339554 48.976101400676505 H 0.0 **** 0.06
13306 C 12.484943488730607 93.85997158328257 5.800413034589667 C 0.0 **** -0.24
13307 H 12.041662864326383 93.30125808487117 4.975565195792143 H 0.0 **** 0.06
13308 H 13.44054543792248 94.27854374081744 5.483523948789923 H 0.0 **** 0.06
13309 H 12.64252566614266 93.19232636271306 6.647613789722598 H 0.0 **** 0.06
13310 H 11.8139139951723 94.66718284532652 6.094315731477792 H 0.0 **** 0.06
13311 C 75.99140615595314 34.96057322197504 30.246418106050783 C 0.0 **** -0.24
13312 H 75.19454792144722 34.27440166777416 30.53251235128701 H 0.0 **** 0.06
13313 H 76.94207673199963 34.594214869239465 30.63662385297083 H 0.0 **** 0.06
13314 H 75.78645843166669 35.947851442928425 30.65757793189087 H 0.0 **** 0.06
13315 H 76.04477648379319 35.02182130350519 29.159946933455615 H 0.0 **** 0.06
13316 C 79.59308565695417 25.18323980700569 98.98003834128835 C 0.0 **** -0.24
13317 H 78.52527971019501 24.962995999175888 98.9683525604519 H 0.0 **** 0.06
13318 H 79.76284787421238 26.17675187563512 98.56478424895724 H 0.0 **** 0.06
13319 H 80.12252598048539 24.442781854473253 98.37949407274132 H 0.0 **** 0.06
13320 H 79.95976414208306 25.14886306654921 100.00583681385834 H 0.0 **** 0.06
13321 C 58.87768884334171 31.67417121164698 26.934377505701093 C 0.0 **** -0.24
13322 H 57.80537096768939 31.635705648750815 27.122265986431955 H 0.0 **** 0.06
13323 H 59.073015233071935 32.31851585972413 26.076638023467126 H 0.0 **** 0.06
13324 H 59.24600950412162 30.669290653090798 26.726547349133398 H 0.0 **** 0.06
13325 H 59.386359668484 32.07317268502214 27.812058663772405 H 0.0 **** 0.06
13326 C 45.79392788260807 77.0626671972222 106.74262096822264 C 0.0 **** -0.24
13327 H 46.40989664957259 77.95209919996773 106.87175085659183 H 0.0 **** 0.06
13328 H 46.19781585528844 76.45563074670105 105.93129690044015 H 0.0 **** 0.06
13329 H 44.77357655504758 77.36040102229987 106.50016859645586 H 0.0 **** 0.06
13330 H 45.793308137535064 76.48298741380944 107.66538167451387 H 0.0 **** 0.06
13331 C 84.9216726533993 43.134376865401975 108.26954484698517 C 0.0 **** -0.24
13332 H 83.85533972185561 43.35642956518768 108.31804332796611 H 0.0 **** 0.06
13333 H 85.32553166472547 43.06953477898088 109.28036127275644 H 0.0 **** 0.06
13334 H 85.43287502168852 43.926719714355215 107.72389086473056 H 0.0 **** 0.06
13335 H 85.0712679627 42.18415215078829 107.75674407241753 H 0.0 **** 0.06
13336 C 12.237912002266512 106.82176353688483 4.681214603187698 C 0.0 **** -0.24
13337 H 11.212751991936273 106.48854616749216 4.523197317278516 H 0.0 **** 0.06
13338 H 12.502530344333735 107.5566268067003 3.920406124450267 H 0.0 **** 0.06
13339 H 12.912242675246006 105.96871575852657 4.61207004843439 H 0.0 **** 0.06
13340 H 12.324695550596488 107.2739380313093 5.668910507766782 H 0.0 **** 0.06
13341 C 48.294744786359416 15.122179561622886 10.595714276511643 C 0.0 **** -0.24
13342 H 47.36629723117409 15.479546030948569 10.151265532776314 H 0.0 **** 0.06
13343 H 48.631691432522814 15.829485213211541 11.352965895128843 H 0.0 **** 0.06
13344 H 49.05695754032186 15.029553921041867 9.820544146479477 H 0.0 **** 0.06
13345 H 48.12576935615428 14.148209101327609 11.056570348189936 H 0.0 **** 0.06
13346 C 51.524038072644736 28.368007650153032 54.02233393803661 C 0.0 **** -0.24
13347 H 50.94080875396546 27.644327011633123 54.590853266834216 H 0.0 **** 0.06
13348 H 51.8579147043864 27.91215030834033 53.08947223968255 H 0.0 **** 0.06
13349 H 52.3912345229364 28.67535048853935 54.60704934044779 H 0.0 **** 0.06
13350 H 50.907673768497105 29.239461310953487 53.80144945983969 H 0.0 **** 0.06
13351 C 48.69550562249631 41.918400840872295 48.20260795687454 C 0.0 **** -0.24
13352 H 48.858857270811896 42.901449905805514 47.760464099513186 H 0.0 **** 0.06
13353 H 48.21843455627925 41.265859504336255 47.471705525266756 H 0.0 **** 0.06
13354 H 48.05212158432917 42.01612052103282 49.07721887161518 H 0.0 **** 0.06
13355 H 49.652570129048236 41.491475939140344 48.50159294219321 H 0.0 **** 0.06
13356 C 11.381983075771814 42.64447212142832 92.99973993702983 C 0.0 **** -0.24
13357 H 11.643039543290119 42.51599102753684 94.05042330837784 H 0.0 **** 0.06
13358 H 10.721241302822605 43.504976397612865 92.89255731527729 H 0.0 **** 0.06
13359 H 10.874018104273183 41.748935901648906 92.64006796312498 H 0.0 **** 0.06
13360 H 12.288561294150867 42.80604626815585 92.41695602182429 H 0.0 **** 0.06
13361 C 30.48462829631078 51.46600587069024 56.50368836289104 C 0.0 **** -0.24
13362 H 31.200898249259886 50.67238455881365 56.71449375407255 H 0.0 **** 0.06
13363 H 29.497155977140075 51.0314282803801 56.34769753832947 H 0.0 **** 0.06
13364 H 30.791658791004785 52.003279007061074 55.60644021702129 H 0.0 **** 0.06
13365 H 30.44863612987949 52.15595834489604 57.34596115745987 H 0.0 **** 0.06
13366 C 16.334203381725928 44.17359749571847 47.06482293299702 C 0.0 **** -0.24
13367 H 17.35518560574053 44.17878194419666 47.44506331449513 H 0.0 **** 0.06
13368 H 15.943440526383313 43.156478985895546 47.08624007208123 H 0.0 **** 0.06
13369 H 16.326975795651947 44.544575489136776 46.03909413054217 H 0.0 **** 0.06
13370 H 15.711135460258078 44.815692983900874 47.6875918729318 H 0.0 **** 0.06
13371 C 6.8923573037585015 53.419996986628206 102.7533238979473 C 0.0 **** -0.24
13372 H 6.400389079281979 54.33387650378745 103.08702422777151 H 0.0 **** 0.06
13373 H 7.8855271496613 53.66024180995555 102.37438135744301 H 0.0 **** 0.06
13374 H 6.302145759589905 52.958927801743556 101.96104998089606 H 0.0 **** 0.06
13375 H 6.979516247618051 52.72781477618787 103.59174120686936 H 0.0 **** 0.06
13376 C 59.33256686489032 105.51763858700255 97.08841008358803 C 0.0 **** -0.24
13377 H 59.822375319877956 104.54636658574393 97.17283103771317 H 0.0 **** 0.06
13378 H 58.299295187923455 105.37577879208519 96.77011637391075 H 0.0 **** 0.06
13379 H 59.85996031990374 106.12751994534094 96.35523259054517 H 0.0 **** 0.06
13380 H 59.350450290341094 106.01754413900778 98.05704883650202 H 0.0 **** 0.06
13381 C 60.5362035576691 102.27005989072228 39.48053516684246 C 0.0 **** -0.24
13382 H 60.30237712242905 102.96015350207873 38.669515791691765 H 0.0 **** 0.06
13383 H 61.60943050687334 102.28233155968451 39.66917948877747 H 0.0 **** 0.06
13384 H 60.226669805015945 101.26369360988465 39.20017271829386 H 0.0 **** 0.06
13385 H 60.0051589483119 102.576810121307 40.38152478740079 H 0.0 **** 0.06
13386 C 83.22804955096956 23.984129868646562 27.235578232788924 C 0.0 **** -0.24
13387 H 83.10396442674829 23.427464939992433 26.307019998585872 H 0.0 **** 0.06
13388 H 82.29439429447461 23.96446296898597 27.798728771415853 H 0.0 **** 0.06
13389 H 83.49309662438043 25.016542506559517 27.007103734523582 H 0.0 **** 0.06
13390 H 84.0206525549205 23.52881075479138 27.828818771253367 H 0.0 **** 0.06
13391 C 21.593181248399485 103.17253312040944 101.0587539412279 C 0.0 **** -0.24
13392 H 22.1821084091386 103.22069557850651 101.97521977323655 H 0.0 **** 0.06
13393 H 21.603074867185526 104.14595225688706 100.5689502464354 H 0.0 **** 0.06
13394 H 20.566154198395083 102.89762051943947 101.30151711338573 H 0.0 **** 0.06
13395 H 22.021184415543416 102.42399393589594 100.39166564822389 H 0.0 **** 0.06
13396 C 105.68384404808597 74.4622019208141 43.227294423742876 C 0.0 **** -0.24
13397 H 104.95273285589116 73.80884193364881 42.750068480616896 H 0.0 **** 0.06
13398 H 105.27566851220061 75.46906962899243 43.30412825233677 H 0.0 **** 0.06
13399 H 106.5950861342632 74.48372171704568 42.62955857148826 H 0.0 **** 0.06
13400 H 105.91140567931458 74.08431697716253 44.224156538146524 H 0.0 **** 0.06
13401 C 11.741936834424251 99.73746038336088 98.42932899334704 C 0.0 **** -0.24
13402 H 12.321184568733187 100.66062122479451 98.39892265336525 H 0.0 **** 0.06
13403 H 10.708409164805762 99.94822035194187 98.15488743129825 H 0.0 **** 0.06
13404 H 11.772504454900403 99.32326355268839 99.4371896015694 H 0.0 **** 0.06
13405 H 12.165277126969208 99.01867576696526 97.72831115063181 H 0.0 **** 0.06
13406 C 105.39303438721137 92.31581162076992 49.590343322848724 C 0.0 **** -0.24
13407 H 105.27778206953906 92.44305997887034 50.66637450448698 H 0.0 **** 0.06
13408 H 104.81560826862304 91.45022467549666 49.26320910446415 H 0.0 **** 0.06
13409 H 106.44613317646439 92.1601869206666 49.35404406858069 H 0.0 **** 0.06
13410 H 105.03367422935472 93.20781997331522 49.07877253002971 H 0.0 **** 0.06
13411 C 98.58707788470872 9.812741759682325 23.910332924846387 C 0.0 **** -0.24
13412 H 97.75073977416454 10.414055551477219 24.26758313183589 H 0.0 **** 0.06
13413 H 98.21796469765476 9.050559094720228 23.223775240281583 H 0.0 **** 0.06
13414 H 99.07690706816385 9.333230202448846 24.757927425364443 H 0.0 **** 0.06
13415 H 99.30107732818203 10.453609462354024 23.39381503897394 H 0.0 **** 0.06
13416 C 37.06443296986771 91.662383318031 18.05036988919909 C 0.0 **** -0.24
13417 H 37.20062893606752 92.71752067702727 17.815218557701712 H 0.0 **** 0.06
13418 H 37.169835772363 91.07130229915404 17.140437535381466 H 0.0 **** 0.06
13419 H 36.07046099841352 91.50853054023088 18.470880833010824 H 0.0 **** 0.06
13420 H 37.81749552736579 91.35110777684571 18.774329634126616 H 0.0 **** 0.06
13421 C 12.840729629978586 45.70290265102539 97.48462884285442 C 0.0 **** -0.24
13422 H 12.425290521430576 45.37605193410317 98.43797576625317 H 0.0 **** 0.06
13423 H 12.711323640778442 46.78098120272021 97.38276035755186 H 0.0 **** 0.06
13424 H 12.324770647704177 45.19569115127271 96.66946861017533 H 0.0 **** 0.06
13425 H 13.902632843814548 45.45957126517888 97.44946081988391 H 0.0 **** 0.06
13426 C 42.7692333065437 8.429803189453365 103.81025646224063 C 0.0 **** -0.24
13427 H 42.40215530498949 9.169999880318809 104.52130638770788 H 0.0 **** 0.06
13428 H 43.85841602613311 8.47059747833643 103.77307729225763 H 0.0 **** 0.06
13429 H 42.363686974789346 8.644722469468475 102.82179693178992 H 0.0 **** 0.06
13430 H 42.45220488789414 7.4360091104801995 104.12539399221004 H 0.0 **** 0.06
13431 C 73.48878041343096 41.64803732965859 106.39778202616401 C 0.0 **** -0.24
13432 H 73.80140714138281 42.02114776653185 105.42303772010501 H 0.0 **** 0.06
13433 H 72.4678883970656 41.97153554882311 106.60007084254175 H 0.0 **** 0.06
13434 H 74.15461030573388 42.039778689408934 107.16783575549658 H 0.0 **** 0.06
13435 H 73.53291316108783 40.558679119244275 106.40050436133743 H 0.0 **** 0.06
13436 C 29.765143635013345 45.967653696200045 5.836066552352859 C 0.0 **** -0.24
13437 H 28.900738423275584 45.52948112510957 6.335615202387524 H 0.0 **** 0.06
13438 H 29.463477981497874 46.88312864372571 5.325462066773975 H 0.0 **** 0.06
13439 H 30.163828832902198 45.25966002636123 5.11037075209798 H 0.0 **** 0.06
13440 H 30.531763865331143 46.20033857693201 6.576345322965908 H 0.0 **** 0.06
13441 C 35.845087205595604 89.80391737918018 79.26244879252727 C 0.0 **** -0.24
13442 H 36.50754128745979 90.03664205917266 78.42855058597468 H 0.0 **** 0.06
13443 H 36.25585964161937 90.22462143911366 80.18067182229498 H 0.0 **** 0.06
13444 H 35.75609621447893 88.72279717649451 79.36473784154197 H 0.0 **** 0.06
13445 H 34.86045715094593 90.23410851301159 79.07422355354899 H 0.0 **** 0.06
13446 C 31.22307264120124 2.248098052902108 105.94727980471208 C 0.0 **** -0.24
13447 H 31.18625811179473 1.8305103092355637 106.95361651580146 H 0.0 **** 0.06
13448 H 30.492149803629502 1.7410716209365944 105.31715568339195 H 0.0 **** 0.06
13449 H 32.22098544360094 2.1088685927347655 105.53230806228652 H 0.0 **** 0.06
13450 H 30.99166772541558 3.312793286452603 105.98916367175337 H 0.0 **** 0.06
13451 C 32.09103885108894 104.80228024077772 8.946694131606534 C 0.0 **** -0.24
13452 H 31.67010116811735 105.79163800256399 9.128969035401127 H 0.0 **** 0.06
13453 H 31.671286572167674 104.09260605048931 9.659461936958536 H 0.0 **** 0.06
13454 H 33.17362169810196 104.84167266192384 9.065933330378044 H 0.0 **** 0.06
13455 H 31.84829452734845 104.48590155883448 7.932407635935618 H 0.0 **** 0.06
13456 C 67.29948417250489 39.511256864602274 47.9312672614123 C 0.0 **** -0.24
13457 H 67.0928873906199 40.428816931428685 47.38012145691846 H 0.0 **** 0.06
13458 H 68.28500856641372 39.579307787852144 48.39371858212871 H 0.0 **** 0.06
13459 H 67.27768346557824 38.66439768003016 47.246421615644465 H 0.0 **** 0.06
13460 H 66.54324092701404 39.37451904399484 48.70440329424315 H 0.0 **** 0.06
13461 C 39.65641493462591 37.27961317355661 69.47053598159027 C 0.0 **** -0.24
13462 H 39.06977017555246 37.10238539428222 68.56874239667357 H 0.0 **** 0.06
13463 H 39.54214304630159 36.43513977782059 70.14940927620131 H 0.0 **** 0.06
13464 H 39.305284367469596 38.18865581849983 69.95873386945195 H 0.0 **** 0.06
13465 H 40.70715773918359 37.393423951119765 69.20385441683848 H 0.0 **** 0.06
13466 C 47.51595798419348 70.34040402026665 39.497971251564095 C 0.0 **** -0.24
13467 H 47.08446883629847 69.34602211521423 39.61466812329222 H 0.0 **** 0.06
13468 H 47.01681769440546 70.85851844508429 38.67921378148466 H 0.0 **** 0.06
13469 H 48.57954808135179 70.25104629806634 39.27836329490359 H 0.0 **** 0.06
13470 H 47.381310913130704 70.9043685512014 40.4214833620095 H 0.0 **** 0.06
13471 C 21.339445522611527 50.25540704888732 108.90733488173187 C 0.0 **** -0.24
13472 H 21.46990822066914 49.57003194302797 108.07000530158541 H 0.0 **** 0.06
13473 H 20.500026809407217 49.9249965250944 109.51995838447242 H 0.0 **** 0.06
13474 H 21.139240078716455 51.256942213504374 108.52725007991847 H 0.0 **** 0.06
13475 H 22.24696134944631 50.269450371882954 109.51062600415962 H 0.0 **** 0.06
13476 C 54.87731850806941 20.177069526434906 57.68970249233371 C 0.0 **** -0.24
13477 H 55.57797230506347 20.206542560472915 58.52444377780051 H 0.0 **** 0.06
13478 H 54.85970945447983 19.17262108776494 57.26620907833683 H 0.0 **** 0.06
13479 H 55.19091155150795 20.888201482655152 56.926153493046115 H 0.0 **** 0.06
13480 H 53.8802358383264 20.439206401431075 58.04370362801154 H 0.0 **** 0.06
13481 C 66.4169019974147 109.25073192229601 45.26082324269095 C 0.0 **** -0.24
13482 H 66.14962464512013 109.11539002783431 44.21249036838637 H 0.0 **** 0.06
13483 H 66.72553247022279 108.29400287639439 45.68253661928776 H 0.0 **** 0.06
13484 H 65.55391876720228 109.62857121115022 45.809227121420065 H 0.0 **** 0.06
13485 H 67.23673044532939 109.96420860639608 45.33756089706611 H 0.0 **** 0.06
13486 C 40.388050899894075 39.153482584057315 13.622507673216091 C 0.0 **** -0.24
13487 H 39.46794416613096 38.6723733757822 13.955172599835919 H 0.0 **** 0.06
13488 H 40.65986974784797 39.94170865753916 14.325247036852659 H 0.0 **** 0.06
13489 H 40.233961248807425 39.58571089569799 12.634470537848188 H 0.0 **** 0.06
13490 H 41.18759994818674 38.41549985048205 13.576604786484381 H 0.0 **** 0.06
13491 C 12.988871862845002 16.607480843041174 54.80962594514146 C 0.0 **** -0.24
13492 H 12.637851327436351 17.535987555881917 54.360074813621274 H 0.0 **** 0.06
13493 H 12.703165036507272 15.766553275830944 54.17739430358047 H 0.0 **** 0.06
13494 H 12.541189740934442 16.489535410439345 55.796381222537946 H 0.0 **** 0.06
13495 H 14.075224201430672 16.638195210451045 54.90497652228505 H 0.0 **** 0.06
13496 C 103.61532501736772 2.2079928219995537 99.21085242159887 C 0.0 **** -0.24
13497 H 103.37490583870337 2.4110318156096184 98.16680537781059 H 0.0 **** 0.06
13498 H 102.87787829679439 1.5217774330065197 99.62669510572726 H 0.0 **** 0.06
13499 H 103.6021618156505 3.1414286944569767 99.77375614791566 H 0.0 **** 0.06
13500 H 104.60696740319048 1.759857412706296 99.27412506868819 H 0.0 **** 0.06
13501 C 110.97146831840377 7.513163235516231 7.546922582830163 C 0.0 **** -0.24
13502 H 110.73003779306377 7.856134710682852 8.552730828999543 H 0.0 **** 0.06
13503 H 111.8886522243578 7.995952146680509 7.208856068870844 H 0.0 **** 0.06
13504 H 110.1562107631118 7.768177048086841 6.870573998031972 H 0.0 **** 0.06
13505 H 111.11233901634516 6.432150299120991 7.555804629943069 H 0.0 **** 0.06
13506 C 29.49799571864039 1.3010206298068203 55.78390985413898 C 0.0 **** -0.24
13507 H 29.375185190405418 0.9551574521426671 54.75721726828999 H 0.0 **** 0.06
13508 H 30.456263237362677 1.810348781972083 55.88328065098841 H 0.0 **** 0.06
13509 H 29.46755273016374 0.44684537151291703 56.46076380785223 H 0.0 **** 0.06
13510 H 28.69144173565345 1.990580643836946 56.033235051387976 H 0.0 **** 0.06
13511 C 74.28793429698811 90.49825471205682 64.29829012510729 C 0.0 **** -0.24
13512 H 74.36158315678932 91.57711047882947 64.43269038847248 H 0.0 **** 0.06
13513 H 74.73658823922247 89.99424573973295 65.15522073674185 H 0.0 **** 0.06
13514 H 74.81663794257426 90.20930527791086 63.38954147373007 H 0.0 **** 0.06
13515 H 73.23931803641548 90.21289200102228 64.21574658443805 H 0.0 **** 0.06
13516 C 57.262925255017265 96.31999850012397 102.7020830790785 C 0.0 **** -0.24
13517 H 57.20272243524838 95.63911273481796 101.85323529173732 H 0.0 **** 0.06
13518 H 57.8330196529646 95.85099325032951 103.50402562180028 H 0.0 **** 0.06
13519 H 56.25807418538347 96.54910548795311 103.05579152060406 H 0.0 **** 0.06
13520 H 57.759693793903075 97.2408641876807 102.39396802752685 H 0.0 **** 0.06
13521 C 35.73178758771783 108.15342549918172 64.71921791963234 C 0.0 **** -0.24
13522 H 35.93031681537514 107.25049133040808 64.1413767210334 H 0.0 **** 0.06
13523 H 35.94905068428258 109.02954701419236 64.10791746245576 H 0.0 **** 0.06
13524 H 36.364035778372326 108.16324699159927 65.60735652537295 H 0.0 **** 0.06
13525 H 34.68386392842353 108.16949197127101 65.01795565845373 H 0.0 **** 0.06
13526 C 103.87334989420921 38.1464365862395 64.3848061246315 C 0.0 **** -0.24
13527 H 103.39923968048481 38.87050044982436 63.72202982088164 H 0.0 **** 0.06
13528 H 103.18493832598142 37.32319619506802 64.57507211129956 H 0.0 **** 0.06
13529 H 104.13208574509406 38.63016373627784 65.3266873230877 H 0.0 **** 0.06
13530 H 104.77854970672135 37.76220136016909 63.91373179146763 H 0.0 **** 0.06
13531 C 79.60276964951487 15.47312095642988 78.10094708916719 C 0.0 **** -0.24
13532 H 80.6498662120892 15.623968276304936 77.83835945553844 H 0.0 **** 0.06
13533 H 79.51831008117983 14.632923850560076 78.79031187275487 H 0.0 **** 0.06
13534 H 79.0293183552792 15.263161179109971 77.19846614478143 H 0.0 **** 0.06
13535 H 79.21571392433373 16.374504359836806 78.57705449856044 H 0.0 **** 0.06
13536 C 82.67951790993266 91.58576558043603 90.79290487749103 C 0.0 **** -0.24
13537 H 82.94975723543217 90.66813023090805 90.27080868201631 H 0.0 **** 0.06
13538 H 83.19790750552511 91.62476574948161 91.75108420209594 H 0.0 **** 0.06
13539 H 81.60259366844699 91.6037926642222 90.96094833890501 H 0.0 **** 0.06
13540 H 82.96695958589234 92.44591331922612 90.18853452783878 H 0.0 **** 0.06
13541 C 17.41522304255406 64.24362382281501 83.56601078064105 C 0.0 **** -0.24
13542 H 17.53112692638429 63.88904322888943 82.54124722262722 H 0.0 **** 0.06
13543 H 18.20809700983898 63.82521970282246 84.18653498762512 H 0.0 **** 0.06
13544 H 16.446108409939853 63.92838277198336 83.95179602923622 H 0.0 **** 0.06
13545 H 17.47632423825216 65.33257254853416 83.58225279385735 H 0.0 **** 0.06
13546 C 31.853487025468752 24.60294673552449 94.74669229625104 C 0.0 **** -0.24
13547 H 31.799647880610735 24.228130059869414 95.76851525652111 H 0.0 **** 0.06
13548 H 32.5963722706816 24.032286008750706 94.18888205067111 H 0.0 **** 0.06
13549 H 32.139451119830994 25.655294945326197 94.76119218022578 H 0.0 **** 0.06
13550 H 30.87988716455027 24.49748247350738 94.26836084844734 H 0.0 **** 0.06
13551 C 105.30426586067739 24.104581841197415 31.316741419904986 C 0.0 **** -0.24
13552 H 105.52286452913421 25.105322441725452 30.94418637679661 H 0.0 **** 0.06
13553 H 106.20547013091976 23.493572601370232 31.264101402017843 H 0.0 **** 0.06
13554 H 104.52178152845855 23.65224492567206 30.70626123349996 H 0.0 **** 0.06
13555 H 104.96734038591586 24.16792758056285 32.3512775063229 H 0.0 **** 0.06
13556 C 24.286235214561202 81.90068463260488 54.30522041879374 C 0.0 **** -0.24
13557 H 25.3450025004762 82.0188133119319 54.07708279375049 H 0.0 **** 0.06
13558 H 24.1630181952863 81.72540673963849 55.37524087273769 H 0.0 **** 0.06
13559 H 23.887132480872594 81.05148957194368 53.75000408312451 H 0.0 **** 0.06
13560 H 23.749412735468468 82.80601572709031 54.02168976771583 H 0.0 **** 0.06
13561 C 18.365075963191373 85.98613643535131 61.46744902393385 C 0.0 **** -0.24
13562 H 19.326751111602334 86.02744822068809 60.95485200687713 H 0.0 **** 0.06
13563 H 18.403385267722 85.22859364386761 62.250895106341375 H 0.0 **** 0.06
13564 H 17.583243262809447 85.7305939175796 60.752726700476614 H 0.0 **** 0.06
13565 H 18.148609723186894 86.95722690615054 61.912154575711725 H 0.0 **** 0.06
13566 C 0.019126045382137136 3.3521270655400457 41.36973455812563 C 0.0 **** -0.24
13567 H -0.7619870489281908 3.656309388384301 40.67244488946312 H 0.0 **** 0.06
13568 H -0.14426167466250206 3.839199647431741 42.332335347972304 H 0.0 **** 0.06
13569 H 0.9918618488148354 3.644507089776198 40.97439753531479 H 0.0 **** 0.06
13570 H -0.010577614249100975 2.270814163177704 41.49908840840142 H 0.0 **** 0.06
13571 C 4.8704442782602655 78.53071552990698 72.21388423132419 C 0.0 **** -0.24
13572 H 3.8079430490637804 78.77092957754277 72.19337378823812 H 0.0 **** 0.06
13573 H 5.4412249268939945 79.42685654196038 72.45800335647999 H 0.0 **** 0.06
13574 H 5.177996823219729 78.15824621024257 71.2365846627994 H 0.0 **** 0.06
13575 H 5.055582613225042 77.76600775088596 72.96911881397111 H 0.0 **** 0.06
13576 C 96.84059082454908 25.844647772603594 89.7080649048136 C 0.0 **** -0.24
13577 H 97.81340445993013 25.37907711021728 89.55357569578692 H 0.0 **** 0.06
13578 H 96.83947473656619 26.375071435690444 90.66067496259348 H 0.0 **** 0.06
13579 H 96.06787629717033 25.075968934522535 89.7195318945669 H 0.0 **** 0.06
13580 H 96.64190126594559 26.548048451072475 88.90013033291248 H 0.0 **** 0.06
13581 C 13.743714143384153 26.980872706615713 82.27228213727744 C 0.0 **** -0.24
13582 H 13.417821385983416 27.679303807083414 81.50132084462007 H 0.0 **** 0.06
13583 H 14.227445550052721 26.122934604987506 81.80477004212594 H 0.0 **** 0.06
13584 H 12.879715432094713 26.643061893052305 82.84473343007403 H 0.0 **** 0.06
13585 H 14.448889300054077 27.478136357095735 82.93813965888035 H 0.0 **** 0.06
13586 C 50.43642993353484 55.81142346883966 98.05127070816704 C 0.0 **** -0.24
13587 H 51.48849519786293 55.9041268314467 98.3199026631984 H 0.0 **** 0.06
13588 H 49.836232936062856 55.72914351040181 98.95771761425712 H 0.0 **** 0.06
13589 H 50.29450881012781 54.92145116575502 97.43907709489636 H 0.0 **** 0.06
13590 H 50.125652917038536 56.69190475468623 97.48905035036981 H 0.0 **** 0.06
13591 C 45.8577530366707 6.144480349895957 48.501055419044974 C 0.0 **** -0.24
13592 H 44.801460889346004 5.948079261441933 48.68042880290116 H 0.0 **** 0.06
13593 H 45.98329691253187 6.581709457654 47.51028306464727 H 0.0 **** 0.06
13594 H 46.41507782003498 5.209402685680345 48.559074823787086 H 0.0 **** 0.06
13595 H 46.23198036293316 6.837729414977815 49.25502895256972 H 0.0 **** 0.06
13596 C 58.820866839026934 11.136103355106897 3.8963988822539477 C 0.0 **** -0.24
13597 H 57.786907784111406 10.79129944120989 3.914601469810151 H 0.0 **** 0.06
13598 H 59.48511471987305 10.305342414040407 4.136531044143979 H 0.0 **** 0.06
13599 H 58.951261379215055 11.929468801901994 4.632103237386389 H 0.0 **** 0.06
13600 H 59.05877989654891 11.517154120360889 2.9036677824446855 H 0.0 **** 0.06
13601 C 62.53215573514503 41.05221563658526 88.08990699821615 C 0.0 **** -0.24
13602 H 63.23592415838727 41.70137802141963 88.61146392654183 H 0.0 **** 0.06
13603 H 61.517694398327215 41.27733438978028 88.41970566361863 H 0.0 **** 0.06
13604 H 62.76434621732893 40.01056644764884 88.31396055438123 H 0.0 **** 0.06
13605 H 62.61221412402492 41.21892127640393 87.01596089017616 H 0.0 **** 0.06
13606 C 38.003376404842314 35.22874061226477 82.08673985130713 C 0.0 **** -0.24
13607 H 38.399174732019844 35.798159254341584 82.9274600552871 H 0.0 **** 0.06
13608 H 36.93241533253454 35.07643528459624 82.22330448173037 H 0.0 **** 0.06
13609 H 38.504650908620164 34.2625930510974 82.03470992577155 H 0.0 **** 0.06
13610 H 38.177476483915704 35.779173144732994 81.16149088405356 H 0.0 **** 0.06
13611 C 85.94161996906405 18.26076638063273 99.7310434837114 C 0.0 **** -0.24
13612 H 86.24315217665247 17.23004657588214 99.54674385147996 H 0.0 **** 0.06
13613 H 86.81573407366406 18.910474600690407 99.67926323085561 H 0.0 **** 0.06
13614 H 85.49164304744943 18.335760543020882 100.7214520291798 H 0.0 **** 0.06
13615 H 85.2153584196557 18.567119439661184 98.97830757757251 H 0.0 **** 0.06
13616 C 30.280873800553763 51.4788817237474 34.3650813300095 C 0.0 **** -0.24
13617 H 30.6577458878116 51.341590567030444 33.35187457819404 H 0.0 **** 0.06
13618 H 29.206993016759412 51.66462306226836 34.33233005219836 H 0.0 **** 0.06
13619 H 30.78294420271891 52.328892855616346 34.82799257506298 H 0.0 **** 0.06
13620 H 30.476757972080435 50.57901195437657 34.94958477259763 H 0.0 **** 0.06
13621 C 70.38124724925666 70.08695729424807 55.926293331765635 C 0.0 **** -0.24
13622 H 70.49695146050402 69.12623672039643 55.42483457088977 H 0.0 **** 0.06
13623 H 69.36071911866702 70.44645966971262 55.793249036714286 H 0.0 **** 0.06
13624 H 71.07935803793731 70.80653627598895 55.49873772464625 H 0.0 **** 0.06
13625 H 70.58936475780257 69.9684391107707 56.98976733040982 H 0.0 **** 0.06
13626 C 34.640362330312776 33.58603898595078 30.528626046770825 C 0.0 **** -0.24
13627 H 34.737711596449564 32.517342465902345 30.720042517637467 H 0.0 **** 0.06
13628 H 34.226252479156834 34.07672791552392 31.409894927624663 H 0.0 **** 0.06
13629 H 33.97653822218463 33.743706616635734 29.678517308257057 H 0.0 **** 0.06
13630 H 35.62148041896146 34.00539486239711 30.306913830844806 H 0.0 **** 0.06
13631 C 20.596447409773617 71.46256240975154 6.092979276547693 C 0.0 **** -0.24
13632 H 21.288428250279992 72.2541822934468 5.804164609659223 H 0.0 **** 0.06
13633 H 21.122311411887182 70.72330297681299 6.697965214631891 H 0.0 **** 0.06
13634 H 20.19747076659408 70.98433799212717 5.198399801501141 H 0.0 **** 0.06
13635 H 19.778105637099856 71.89079736342049 6.671706285652229 H 0.0 **** 0.06
13636 C 11.422497147366833 95.22769319915295 19.31904902186441 C 0.0 **** -0.24
13637 H 10.714410141548331 96.05655866843347 19.32191840564442 H 0.0 **** 0.06
13638 H 12.027401724545875 95.27060062807479 18.41298675655809 H 0.0 **** 0.06
13639 H 10.877629360603201 94.28375747954834 19.348474848609698 H 0.0 **** 0.06
13640 H 12.07013254938359 95.30073792151217 20.192591939901344 H 0.0 **** 0.06
13641 C 1.707814560790439 16.411668133745053 94.68868462652026 C 0.0 **** -0.24
13642 H 1.7572612541986814 16.884176838774238 93.7080063407048 H 0.0 **** 0.06
13643 H 2.705505078517149 16.090406351129133 94.98755730382649 H 0.0 **** 0.06
13644 H 1.0466586951789623 15.546599199319886 94.64168435186363 H 0.0 **** 0.06
13645 H 1.3221398317372746 17.12501762158145 95.41619327389762 H 0.0 **** 0.06
13646 C 90.4121074043598 29.27125239361441 88.55554642129479 C 0.0 **** -0.24
13647 H 90.02299419646295 29.54173808339946 87.57373543302035 H 0.0 **** 0.06
13648 H 91.27599170174099 29.894155992711454 88.78781227150918 H 0.0 **** 0.06
13649 H 90.71069124593751 28.222274167592246 88.55132252556797 H 0.0 **** 0.06
13650 H 89.6390167487676 29.426078045226454 89.30778322668823 H 0.0 **** 0.06
13651 C 42.06899471382941 70.8655644085438 89.00042789129469 C 0.0 **** -0.24
13652 H 42.47022028450196 71.25077132289897 89.93774430233111 H 0.0 **** 0.06
13653 H 42.768777038895905 70.14529237882013 88.57549219664207 H 0.0 **** 0.06
13654 H 41.9246494736508 71.6886129151099 88.30136785765166 H 0.0 **** 0.06
13655 H 41.11295955432146 70.37571239392287 89.18856145597013 H 0.0 **** 0.06
13656 C 38.759420665043734 14.213132124919198 40.21822921536151 C 0.0 **** -0.24
13657 H 39.081484988257166 13.218304878878385 39.906938616278524 H 0.0 **** 0.06
13658 H 37.77409945474781 14.147942263116121 40.67950979370916 H 0.0 **** 0.06
13659 H 38.71011627992838 14.866858913101737 39.346705937384705 H 0.0 **** 0.06
13660 H 39.472471201081625 14.61700284048942 40.93577410776835 H 0.0 **** 0.06
13661 C 58.39124674682131 92.91078211419389 18.411849741959088 C 0.0 **** -0.24
13662 H 58.14852051511957 92.38184864246386 19.33353664855268 H 0.0 **** 0.06
13663 H 58.63646926981153 92.18853918880063 17.632223841442936 H 0.0 **** 0.06
13664 H 59.24591331949955 93.5650267572374 18.582206288135495 H 0.0 **** 0.06
13665 H 57.5344661342815 93.50613309828998 18.098836186118078 H 0.0 **** 0.06
13666 C 4.543118613391453 48.323714349902104 16.79651712535653 C 0.0 **** -0.24
13667 H 4.93030475977409 47.306778029589935 16.7398977697016 H 0.0 **** 0.06
13668 H 5.305704986431081 48.97946442360282 17.219680683127223 H 0.0 **** 0.06
13669 H 3.656202555432401 48.33991931264367 17.430300780257284 H 0.0 **** 0.06
13670 H 4.281519320530048 48.66904355494029 15.796735703528213 H 0.0 **** 0.06
13671 C 37.174590911248295 85.79917351032691 47.29394937653919 C 0.0 **** -0.24
13672 H 36.58453239502247 85.50647894574789 48.16269862413566 H 0.0 **** 0.06
13673 H 36.808888951561144 86.75246769848991 46.91207286439982 H 0.0 **** 0.06
13674 H 37.08264832572134 85.03814226888355 46.51967917545821 H 0.0 **** 0.06
13675 H 38.220569118596494 85.90040808401858 47.58288972279249 H 0.0 **** 0.06
13676 C 93.66435752697706 14.837844219985044 42.21952616096564 C 0.0 **** -0.24
13677 H 93.14563557337746 13.942837339619714 41.87424847839736 H 0.0 **** 0.06
13678 H 94.49808081410833 15.054440647050981 41.5513960275197 H 0.0 **** 0.06
13679 H 94.04002506045094 14.673728916253069 43.22844109299905 H 0.0 **** 0.06
13680 H 92.97197306703433 15.679863115787953 42.22161065480287 H 0.0 **** 0.06
13681 C 79.49471904769192 65.59718001172982 66.32692885844193 C 0.0 **** -0.24
13682 H 78.90355024367864 65.01043893594806 65.6241887103431 H 0.0 **** 0.06
13683 H 79.83358578573976 66.5118125828806 65.8418413370519 H 0.0 **** 0.06
13684 H 80.35814521407966 65.01460560168664 66.64967141218753 H 0.0 **** 0.06
13685 H 78.88288810157027 65.84979448282883 67.19380906864609 H 0.0 **** 0.06
13686 C 60.22111504288358 106.66419353129234 24.646757028992386 C 0.0 **** -0.24
13687 H 59.47993070739989 106.297274098788 25.35728805739946 H 0.0 **** 0.06
13688 H 60.872295220333115 105.84335986689857 24.345005633937525 H 0.0 **** 0.06
13689 H 60.816190024904756 107.44763024114583 25.11618762623926 H 0.0 **** 0.06
13690 H 59.7150205677608 107.06865471506269 23.770258931318793 H 0.0 **** 0.06
13691 C 102.74818402373873 69.96202531608816 45.651261172086976 C 0.0 **** -0.24
13692 H 101.67259019312527 69.805371245271 45.56361494391811 H 0.0 **** 0.06
13693 H 103.02757244401678 69.97940736824276 46.70507728942442 H 0.0 **** 0.06
13694 H 103.01542706895515 70.91136946743495 45.18761130332183 H 0.0 **** 0.06
13695 H 103.27493632403196 69.15166586642943 45.14892376066476 H 0.0 **** 0.06
13696 C 53.83413269193371 51.943923004911085 2.792576093422923 C 0.0 **** -0.24
13697 H 54.19186399151747 52.95356353832537 2.5891584551401507 H 0.0 **** 0.06
13698 H 54.18845857972672 51.26928244854088 2.012164172110076 H 0.0 **** 0.06
13699 H 52.74455093661291 51.9416740323538 2.808161102695621 H 0.0 **** 0.06
13700 H 54.21351399735944 51.613159728209155 3.7589227269569534 H 0.0 **** 0.06
13701 C 90.62343919103026 97.73296173921719 92.54313499088514 C 0.0 **** -0.24
13702 H 90.43011813389882 97.06320269352955 93.38203741091309 H 0.0 **** 0.06
13703 H 90.28226475077187 98.73705924084891 92.7953464201185 H 0.0 **** 0.06
13704 H 90.08823968133152 97.3765592860832 91.66309513030143 H 0.0 **** 0.06
13705 H 91.69268244528823 97.75377585851928 92.33526012792123 H 0.0 **** 0.06
13706 C 46.42073336922283 110.3337794892526 111.99253331498961 C 0.0 **** -0.24
13707 H 47.33268206277464 110.5992539987864 111.4581231418067 H 0.0 **** 0.06
13708 H 45.6087770303466 110.19593954267765 111.27826343423732 H 0.0 **** 0.06
13709 H 46.161817703571344 111.1339152048852 112.68747937302487 H 0.0 **** 0.06
13710 H 46.57952851332779 109.40916414533896 112.546092589202 H 0.0 **** 0.06
13711 C 13.22307761144765 44.77186654324339 107.00566081318077 C 0.0 **** -0.24
13712 H 12.179861204443142 44.45836273410907 106.98548120593236 H 0.0 **** 0.06
13713 H 13.607857636484027 44.818751383020185 105.98676211792863 H 0.0 **** 0.06
13714 H 13.8068998164877 44.05516450641278 107.58230121399737 H 0.0 **** 0.06
13715 H 13.296810255481205 45.756249236523104 107.46778914464308 H 0.0 **** 0.06
13716 C 86.26729364563451 32.281851533643646 1.0629238449603404 C 0.0 **** -0.24
13717 H 85.43698107569566 31.663524757074185 0.7221359184538709 H 0.0 **** 0.06
13718 H 85.97928531417557 32.80844783595839 1.972541841623066 H 0.0 **** 0.06
13719 H 86.52352088581446 33.00548909243736 0.28865727992698975 H 0.0 **** 0.06
13720 H 87.13138440025472 31.647848768297365 1.2675727800557404 H 0.0 **** 0.06
13721 C 47.82660685798092 91.30590203592669 35.95272132697647 C 0.0 **** -0.24
13722 H 48.65848291928273 90.60199170447984 35.97171712488833 H 0.0 **** 0.06
13723 H 47.86286214357895 91.88554419278836 35.02929454454048 H 0.0 **** 0.06
13724 H 47.89945390538645 91.97884128967723 36.80747187246487 H 0.0 **** 0.06
13725 H 46.88481715198469 90.75825768738582 36.00058851446275 H 0.0 **** 0.06
13726 C 12.275752707333709 53.57064184359933 76.53185078998811 C 0.0 **** -0.24
13727 H 12.734115131651635 53.61586143520384 77.52033423990383 H 0.0 **** 0.06
13728 H 11.191484740536794 53.523546738887546 76.63638047717134 H 0.0 **** 0.06
13729 H 12.62965641357016 52.683403356438504 76.00860580258794 H 0.0 **** 0.06
13730 H 12.548446506298575 54.460932085942176 75.96411684345404 H 0.0 **** 0.06
13731 C 93.90549280784509 63.421019198687276 105.94789968611408 C 0.0 **** -0.24
13732 H 92.88262736821574 63.66267842256087 106.23898657064242 H 0.0 **** 0.06
13733 H 94.60190739836679 63.98596866530741 106.56737704425485 H 0.0 **** 0.06
13734 H 94.0558717204917 63.68308956689998 104.90026485665456 H 0.0 **** 0.06
13735 H 94.07954325170817 62.35443966890654 106.08568164937296 H 0.0 **** 0.06
13736 C 72.64461104304831 0.37237041745936583 95.11198664137217 C 0.0 **** -0.24
13737 H 73.02513315207992 1.2765771330437223 95.58638572677646 H 0.0 **** 0.06
13738 H 71.55547798398806 0.36558826774930875 95.16386746434185 H 0.0 **** 0.06
13739 H 73.03903534848348 -0.5031161173135956 95.62979577791236 H 0.0 **** 0.06
13740 H 72.95929094761456 0.34903766395603597 94.06879849278505 H 0.0 **** 0.06
13741 C 64.90710110484977 3.0541460537261855 51.26016416031325 C 0.0 **** -0.24
13742 H 65.87169203179181 2.5492600789981594 51.31203787367056 H 0.0 **** 0.06
13743 H 64.43632556998361 2.836901198125929 50.300691110901056 H 0.0 **** 0.06
13744 H 65.05463915199508 4.1294338554647965 51.357601442241815 H 0.0 **** 0.06
13745 H 64.2677899534664 2.699628370474784 52.06788117776156 H 0.0 **** 0.06
13746 C 78.34458099457754 96.92706783688715 105.47964173749662 C 0.0 **** -0.24
13747 H 78.21709020469245 96.77316861067271 106.55125245362089 H 0.0 **** 0.06
13748 H 79.38599136678846 97.17637869392462 105.27020424788529 H 0.0 **** 0.06
13749 H 77.70119353598031 97.74295019181608 105.15080145621178 H 0.0 **** 0.06
13750 H 78.076477947532 96.0143415237199 104.94733277232496 H 0.0 **** 0.06
13751 C 112.39775486639441 6.590112322349327 110.88382565946534 C 0.0 **** -0.24
13752 H 112.65015960839244 7.647569333604025 110.81220271789408 H 0.0 **** 0.06
13753 H 113.25535980530093 5.990156496575793 110.5765989303402 H 0.0 **** 0.06
13754 H 111.55030912818094 6.373751149712291 110.23342659167156 H 0.0 **** 0.06
13755 H 112.13565015897093 6.3485751095042104 111.9138689996492 H 0.0 **** 0.06
13756 C 63.73479359639584 89.60354604794304 111.80501489432041 C 0.0 **** -0.24
13757 H 64.4909378242917 88.8566771929465 111.56281411624374 H 0.0 **** 0.06
13758 H 62.77229297461255 89.29132866759966 111.3977148263624 H 0.0 **** 0.06
13759 H 64.01841872782504 90.56282899924733 111.3710627728637 H 0.0 **** 0.06
13760 H 63.65569730491598 89.7030171660852 112.88687097334841 H 0.0 **** 0.06
13761 C 48.62049971087407 19.844929698129533 15.48230324322131 C 0.0 **** -0.24
13762 H 49.546140954495286 19.57097561752701 14.975697022589785 H 0.0 **** 0.06
13763 H 47.804681546765664 19.22612181569204 15.10655464864358 H 0.0 **** 0.06
13764 H 48.3984992278634 20.895007986256275 15.290144954877746 H 0.0 **** 0.06
13765 H 48.732424191198675 19.687385001668446 16.55460633319906 H 0.0 **** 0.06
13766 C 33.51422372296762 10.462140900804258 9.87645871238442 C 0.0 **** -0.24
13767 H 34.38886744076616 11.094223848457677 10.030009694924331 H 0.0 **** 0.06
13768 H 32.71699026226716 11.049724593974243 9.421861563394373 H 0.0 **** 0.06
13769 H 33.17717611931969 10.069853988464022 10.835905572185254 H 0.0 **** 0.06
13770 H 33.776804068402704 9.634180426570147 9.21801327032125 H 0.0 **** 0.06
13771 C 63.222476267507 25.490995352520713 25.913830693465997 C 0.0 **** -0.24
13772 H 63.821262817515354 24.765705508791854 26.46458171644747 H 0.0 **** 0.06
13773 H 63.08286708213273 25.14333396351691 24.890588697227088 H 0.0 **** 0.06
13774 H 63.73502049580454 26.452799894086525 25.90590527595137 H 0.0 **** 0.06
13775 H 62.25090998856732 25.600378765284177 26.396867636483847 H 0.0 **** 0.06
13776 C 44.05734639944848 37.824354661865016 12.619487133622158 C 0.0 **** -0.24
13777 H 43.508538373245216 37.646979084321856 13.544123287097364 H 0.0 **** 0.06
13778 H 43.371751898979 38.18861471915551 11.853811463828151 H 0.0 **** 0.06
13779 H 44.51532026089916 36.894399860345345 12.284386659252732 H 0.0 **** 0.06
13780 H 44.83424927998871 38.56877058034229 12.794644953495151 H 0.0 **** 0.06
13781 C 70.33078831755716 11.308071585298507 25.59608248840553 C 0.0 **** -0.24
13782 H 70.05079897693582 10.396207915052685 25.069558082658546 H 0.0 **** 0.06
13783 H 71.36499682270554 11.230941487869984 25.9320692795944 H 0.0 **** 0.06
13784 H 69.67737064204354 11.44468387711865 26.458868047692874 H 0.0 **** 0.06
13785 H 70.22919124533811 12.161221674371603 24.924715676203107 H 0.0 **** 0.06
13786 C 6.519901662940953 77.18832156296497 94.1892728427996 C 0.0 **** -0.24
13787 H 5.692646066843224 77.17032840545033 93.47920181916282 H 0.0 **** 0.06
13788 H 6.410479807005885 76.36318820810783 94.89394742483199 H 0.0 **** 0.06
13789 H 6.512317980250742 78.13388649711061 94.73121916746078 H 0.0 **** 0.06
13790 H 7.462348273600838 77.08551922157687 93.65111815281361 H 0.0 **** 0.06
13791 C 95.05364780757952 65.76747225900567 9.23798189953581 C 0.0 **** -0.24
13792 H 95.74297559406378 64.9233411053523 9.240659063200098 H 0.0 **** 0.06
13793 H 94.08394814264093 65.44400754644789 8.859147437448001 H 0.0 **** 0.06
13794 H 95.44889652591141 66.55740868999067 8.599456045759638 H 0.0 **** 0.06
13795 H 94.93986766712919 66.14560676806443 10.254554982643754 H 0.0 **** 0.06
13796 C 45.894370422405956 43.55051047482569 40.761380902255354 C 0.0 **** -0.24
13797 H 45.45945499081708 42.86472357719974 41.488895385851976 H 0.0 **** 0.06
13798 H 46.917652207662684 43.244988362349645 40.54124443952665 H 0.0 **** 0.06
13799 H 45.89655359414588 44.56044445036832 41.17068757765276 H 0.0 **** 0.06
13800 H 45.303863722519154 43.52964978822884 39.8446954954664 H 0.0 **** 0.06
13801 C 47.034929963433456 102.75066564341026 44.355244052533806 C 0.0 **** -0.24
13802 H 46.69759025802006 101.72091354704261 44.23772415219554 H 0.0 **** 0.06
13803 H 47.815525025610526 102.79216766371403 45.11476581707754 H 0.0 **** 0.06
13804 H 46.19547811038788 103.37474609755586 44.662244997248706 H 0.0 **** 0.06
13805 H 47.430918942748775 103.11386092102015 43.40632868845768 H 0.0 **** 0.06
13806 C 91.29711869694376 25.821595344076584 63.97277938738649 C 0.0 **** -0.24
13807 H 91.94931626061174 25.755015888081005 64.84376384249387 H 0.0 **** 0.06
13808 H 91.51599215447146 26.739050810608475 63.424764450507574 H 0.0 **** 0.06
13809 H 90.25781225963652 25.831312761532928 64.29826361515177 H 0.0 **** 0.06
13810 H 91.46801278105221 24.96237716389365 63.32452735519319 H 0.0 **** 0.06
13811 C 53.35721189381172 16.42782264056359 30.862732128051242 C 0.0 **** -0.24
13812 H 54.234994224929125 16.208491694482646 31.470689784191357 H 0.0 **** 0.06
13813 H 52.577635939301835 15.69611128135827 31.07301090823973 H 0.0 **** 0.06
13814 H 53.62582609758797 16.38038022362099 29.80705032951954 H 0.0 **** 0.06
13815 H 52.99196217533983 17.42703606521762 31.10013804662939 H 0.0 **** 0.06
13816 C 11.157811010814157 110.95007311229506 110.11358715091944 C 0.0 **** -0.24
13817 H 10.298166937746771 111.15521843098537 110.75379181834822 H 0.0 **** 0.06
13818 H 10.840573391416399 110.3441141505482 109.26499572412561 H 0.0 **** 0.06
13819 H 11.914006220372187 110.41040045597998 110.6847742380757 H 0.0 **** 0.06
13820 H 11.574391885465957 111.89016519937206 109.75424951319565 H 0.0 **** 0.06
13821 C 75.67890377854067 94.63488262283869 75.85344677890541 C 0.0 **** -0.24
13822 H 74.76404284503752 94.91855711464399 76.37425353537898 H 0.0 **** 0.06
13823 H 75.67246602511918 95.06051284455515 74.8502310327124 H 0.0 **** 0.06
13824 H 75.73728993438823 93.54849296727895 75.78850103556286 H 0.0 **** 0.06
13825 H 76.54115588115229 95.01308619457944 76.4036847513031 H 0.0 **** 0.06
13826 C 62.51942069650855 68.90096185016097 56.505258800042974 C 0.0 **** -0.24
13827 H 61.8461690228944 69.53386290046808 55.92766482761826 H 0.0 **** 0.06
13828 H 62.32393087874664 67.85362693014332 56.269804290912994 H 0.0 **** 0.06
13829 H 62.35581008272072 69.07114812777257 57.56966690850448 H 0.0 **** 0.06
13830 H 63.55183652687245 69.14320785875299 56.25290424289616 H 0.0 **** 0.06
13831 C 34.20393925063027 2.72635628036997 49.066211690892374 C 0.0 **** -0.24
13832 H 34.90505170811144 2.1013108033465784 48.51390487683125 H 0.0 **** 0.06
13833 H 34.708961900113195 3.634154231845997 49.397319574808535 H 0.0 **** 0.06
13834 H 33.83596112299119 2.1789634088847976 49.93402246162128 H 0.0 **** 0.06
13835 H 33.36635977235622 2.9908065120932577 48.42122173188932 H 0.0 **** 0.06
13836 C 74.64920069918281 43.885697501868094 7.247750347852515 C 0.0 **** -0.24
13837 H 73.71752281277742 44.08117325287094 7.778247201222108 H 0.0 **** 0.06
13838 H 75.16807675816995 44.827509111528514 7.065171596004182 H 0.0 **** 0.06
13839 H 74.43082970817625 43.39972291117499 6.296689775356425 H 0.0 **** 0.06
13840 H 75.2808348999618 43.23369530467011 7.852038213898222 H 0.0 **** 0.06
13841 C 105.17852078671567 92.58283915904173 88.24364281669307 C 0.0 **** -0.24
13842 H 105.99353021232349 93.13939620808907 87.78158086986608 H 0.0 **** 0.06
13843 H 104.25767023169055 92.75654765288914 87.68598874667862 H 0.0 **** 0.06
13844 H 105.04837635489275 92.91644998935544 89.27332075242555 H 0.0 **** 0.06
13845 H 105.41360811813792 91.51871782499802 88.23404591027682 H 0.0 **** 0.06
13846 C 17.62249831866268 19.101699312098674 88.89998761560074 C 0.0 **** -0.24
13847 H 17.490622781559637 18.025439415660117 89.00919769874292 H 0.0 **** 0.06
13848 H 17.930911027006857 19.32758803548103 87.87934602250695 H 0.0 **** 0.06
13849 H 18.388467223566124 19.445507016117546 89.59565228491223 H 0.0 **** 0.06
13850 H 16.681243751569355 19.60620730696428 89.11621172133479 H 0.0 **** 0.06
13851 C 84.43794052414148 11.568379874291963 47.219317742199166 C 0.0 **** -0.24
13852 H 83.78477645115467 11.767726295778289 46.36947886613808 H 0.0 **** 0.06
13853 H 84.16170836113744 12.218297750481383 48.04913874129255 H 0.0 **** 0.06
13854 H 85.4721287051787 11.759984737315847 46.93534819461212 H 0.0 **** 0.06
13855 H 84.3306789463181 10.526066765801147 47.522401596481956 H 0.0 **** 0.06
13856 C 82.73440958747963 2.956821215773644 73.14917774218534 C 0.0 **** -0.24
13857 H 82.7665802314381 2.281132719790026 72.29509201100862 H 0.0 **** 0.06
13858 H 83.58160179151909 2.754551788454247 73.80442260611082 H 0.0 **** 0.06
13859 H 81.80492345610591 2.8037817214391527 73.69808198352746 H 0.0 **** 0.06
13860 H 82.78347569409055 3.988267933894237 72.79828937123926 H 0.0 **** 0.06
13861 C 66.59299107016972 106.21705221844701 2.8172960651669996 C 0.0 **** -0.24
13862 H 67.09605666824473 107.01109634396911 3.3695698631732967 H 0.0 **** 0.06
13863 H 65.57582120613975 106.10085072256805 3.1939712284225266 H 0.0 **** 0.06
13864 H 67.13800620585258 105.28195508757136 2.9484802062906965 H 0.0 **** 0.06
13865 H 66.56233341778602 106.47382123226181 1.7584669169181097 H 0.0 **** 0.06
13866 C 27.44772215356423 88.91855247182502 61.0362955366445 C 0.0 **** -0.24
13867 H 28.04713073504496 89.74115590109355 60.645785151519874 H 0.0 **** 0.06
13868 H 27.6401562944352 88.8028256834883 62.10257165470688 H 0.0 **** 0.06
13869 H 27.71196069129678 87.99723902610057 60.51629075484783 H 0.0 **** 0.06
13870 H 26.39063406156012 89.13403178219826 60.87883171873921 H 0.0 **** 0.06
13871 C 4.895626542979729 50.22281308457812 111.57242984749422 C 0.0 **** -0.24
13872 H 5.031587692618169 49.38785928769905 112.25967878608972 H 0.0 **** 0.06
13873 H 4.061524716077217 50.00908504035613 110.90334770723301 H 0.0 **** 0.06
13874 H 5.804728970448629 50.36324088552734 110.98715962418147 H 0.0 **** 0.06
13875 H 4.683988504278293 51.12895184733305 112.13979503385649 H 0.0 **** 0.06
13876 C 97.27970379792396 39.789824512270364 90.83740600482699 C 0.0 **** -0.24
13877 H 96.64946940868504 40.10001287559446 91.6709317619752 H 0.0 **** 0.06
13878 H 96.66588999242924 39.30167023678094 90.07959106982679 H 0.0 **** 0.06
13879 H 98.0373739640483 39.092422416668626 91.19639722271435 H 0.0 **** 0.06
13880 H 97.76630078202243 40.6636926160878 90.40434793262995 H 0.0 **** 0.06
13881 C 23.318122926175203 103.54644930909171 73.54604428771287 C 0.0 **** -0.24
13882 H 23.653076590465876 103.12482896847223 72.59883382128996 H 0.0 **** 0.06
13883 H 22.508422013784877 102.93676450962926 73.94826602360425 H 0.0 **** 0.06
13884 H 22.96133874167929 104.56380513843965 73.38446282313936 H 0.0 **** 0.06
13885 H 24.14896884170158 103.5598212774488 74.25152047387152 H 0.0 **** 0.06
13886 C 19.796975663578937 88.1129975423251 38.77464061829022 C 0.0 **** -0.24
13887 H 19.155823930549623 88.52029411046672 39.55637161335085 H 0.0 **** 0.06
13888 H 19.179846025114923 87.70698611102924 37.97280575573842 H 0.0 **** 0.06
13889 H 20.419009709409707 87.32050814441169 39.1911086329643 H 0.0 **** 0.06
13890 H 20.433931390559156 88.90384317044547 38.378884423988495 H 0.0 **** 0.06
13891 C 53.567544816325345 110.27741981487355 3.821102775492477 C 0.0 **** -0.24
13892 H 53.47113015379525 109.81774622229598 4.80467828655145 H 0.0 **** 0.06
13893 H 53.2555788425476 111.3196861110927 3.8748289272681404 H 0.0 **** 0.06
13894 H 52.93786761883811 109.74485565688926 3.108606168199856 H 0.0 **** 0.06
13895 H 54.60735911017913 110.22496084800817 3.496389433228842 H 0.0 **** 0.06
13896 C 86.81656334966323 1.2375726870944845 57.89249227807384 C 0.0 **** -0.24
13897 H 86.0105071600847 0.5538831153074453 58.158694031963854 H 0.0 **** 0.06
13898 H 87.70612694121473 0.9925060716835832 58.472038921795665 H 0.0 **** 0.06
13899 H 86.51017718601477 2.2617500943972146 58.11089256054448 H 0.0 **** 0.06
13900 H 87.03642709827119 1.1436211230070956 56.82920990514098 H 0.0 **** 0.06
13901 C 22.503837933962615 22.90512061420958 69.16849937705152 C 0.0 **** -0.24
13902 H 22.24618006324002 23.124387827589743 68.13252462919536 H 0.0 **** 0.06
13903 H 21.692979436472996 22.343913733027478 69.6329945103075 H 0.0 **** 0.06
13904 H 22.655916931325862 23.839264481282584 69.70956002650502 H 0.0 **** 0.06
13905 H 23.41947706891463 22.314557143227432 69.19809916149163 H 0.0 **** 0.06
13906 C 96.69950717005167 15.974982865544263 76.42244542483095 C 0.0 **** -0.24
13907 H 95.73662762331756 15.468961826827893 76.49948525095527 H 0.0 **** 0.06
13908 H 97.50229339312182 15.242127147330422 76.4998930471634 H 0.0 **** 0.06
13909 H 96.7917999636202 16.702845489665833 77.22960248941166 H 0.0 **** 0.06
13910 H 96.76459711019521 16.488042288729133 75.46237262535536 H 0.0 **** 0.06
13911 C 105.33551168775472 106.49310182255095 44.400598240291174 C 0.0 **** -0.24
13912 H 106.42336632433484 106.42937533954685 44.43334943522939 H 0.0 **** 0.06
13913 H 104.91791270394086 106.05706605378532 45.30738829979296 H 0.0 **** 0.06
13914 H 104.96645073409513 105.94821074198862 43.53098902789961 H 0.0 **** 0.06
13915 H 105.03520449687366 107.53825774554372 44.32784480810821 H 0.0 **** 0.06
13916 C 10.125134889723284 38.621935830678126 81.58503601922195 C 0.0 **** -0.24
13917 H 10.13083752484691 38.4927393233545 82.66679202918795 H 0.0 **** 0.06
13918 H 10.87476208627902 39.36226325447706 81.30331481905102 H 0.0 **** 0.06
13919 H 9.140769604685403 38.96122217494502 81.26431638057488 H 0.0 **** 0.06
13920 H 10.355842891640563 37.6711649438696 81.10427938578039 H 0.0 **** 0.06
13921 C 108.23846475374887 109.16368020581558 108.27435549100949 C 0.0 **** -0.24
13922 H 108.13117531370995 108.24108829804123 108.84506518440827 H 0.0 **** 0.06
13923 H 109.24462110088552 109.21692207839618 107.85673343412884 H 0.0 **** 0.06
13924 H 108.07095491641803 110.01810897371422 108.92982807230389 H 0.0 **** 0.06
13925 H 107.50746165104289 109.1764050864735 107.46602083178682 H 0.0 **** 0.06
13926 C 17.649908726215813 17.2697962435046 9.706302291273076 C 0.0 **** -0.24
13927 H 18.54574944412741 17.26714735227165 10.327845390182503 H 0.0 **** 0.06
13928 H 17.850504387619736 16.733232731187428 8.778628101423507 H 0.0 **** 0.06
13929 H 17.369090749532887 18.297485925524683 9.47919331969041 H 0.0 **** 0.06
13930 H 16.83588873986804 16.779384695714782 10.241186792330012 H 0.0 **** 0.06
13931 C 85.6825286972472 61.28027896965165 28.699466377850896 C 0.0 **** -0.24
13932 H 85.98260713917426 62.09242106886518 28.037046158334498 H 0.0 **** 0.06
13933 H 86.41110718892585 60.4715710827337 28.636893527877973 H 0.0 **** 0.06
13934 H 84.70189676713395 60.91078621813915 28.39995761219894 H 0.0 **** 0.06
13935 H 85.6342592244659 61.64683307323537 29.72480170411302 H 0.0 **** 0.06
13936 C 109.25123680787674 104.55075062984017 50.249416991751445 C 0.0 **** -0.24
13937 H 108.65768068459309 105.01278303099659 51.03848834232923 H 0.0 **** 0.06
13938 H 109.95936873263044 103.85021300352113 50.69110416040195 H 0.0 **** 0.06
13939 H 109.7940853378297 105.32319581135994 49.70483247590283 H 0.0 **** 0.06
13940 H 108.59217181954489 104.01872763306736 49.56452125463821 H 0.0 **** 0.06
13941 C 98.26048630024349 85.36062523693556 50.93644271102983 C 0.0 **** -0.24
13942 H 98.78325420837638 85.41243736517316 51.89153779087479 H 0.0 **** 0.06
13943 H 98.69139203012554 84.56284971614136 50.32951603074247 H 0.0 **** 0.06
13944 H 98.36417762798084 86.31090645970639 50.414121917855596 H 0.0 **** 0.06
13945 H 97.20493136194136 85.15471693294222 51.111036164878556 H 0.0 **** 0.06
13946 C 77.7307231850159 21.13262235203507 95.15735560816492 C 0.0 **** -0.24
13947 H 77.52344553912732 20.214071822160662 94.60942566321646 H 0.0 **** 0.06
13948 H 78.11818187775737 21.885216191239806 94.47111175395878 H 0.0 **** 0.06
13949 H 78.46927846840998 20.93282096645021 95.93381996635449 H 0.0 **** 0.06
13950 H 76.81158753567891 21.497599419509356 95.61554528477328 H 0.0 **** 0.06
13951 C 38.34764066764927 111.11890350603365 7.650929866982011 C 0.0 **** -0.24
13952 H 37.704826099404556 111.85484090444325 7.167203698527061 H 0.0 **** 0.06
13953 H 39.292332195634856 111.04942752212577 7.109935875576184 H 0.0 **** 0.06
13954 H 37.853678321003144 110.14768184714328 7.647608342557703 H 0.0 **** 0.06
13955 H 38.53995237897527 111.42520591798126 8.679726976080559 H 0.0 **** 0.06
13956 C 11.468697493884335 96.86229711161383 53.27550537444378 C 0.0 **** -0.24
13957 H 12.321267664643447 96.78243700973599 53.94976559510344 H 0.0 **** 0.06
13958 H 10.66291303370405 96.22027336226631 53.63079437882924 H 0.0 **** 0.06
13959 H 11.767858829462238 96.55143271190258 52.27452225274398 H 0.0 **** 0.06
13960 H 11.125471330731152 97.89629835236266 53.24710456696838 H 0.0 **** 0.06
13961 C 53.13397292574428 92.7827118915728 58.820671812859416 C 0.0 **** -0.24
13962 H 53.45588448957338 92.67894937078196 57.784732314851794 H 0.0 **** 0.06
13963 H 52.78567987846229 93.8017330670294 58.991171740882976 H 0.0 **** 0.06
13964 H 53.97129790525799 92.5690787833137 59.4849105919626 H 0.0 **** 0.06
13965 H 52.322558324795686 92.08263616103957 59.02003508604389 H 0.0 **** 0.06
13966 C 11.54042759955371 91.5572944599908 74.11703170130426 C 0.0 **** -0.24
13967 H 10.996718157649553 91.70333247728834 73.18373146881078 H 0.0 **** 0.06
13968 H 12.535936676142455 91.1704913295192 73.90070239314167 H 0.0 **** 0.06
13969 H 11.001818177583544 90.84685733737143 74.74321243255457 H 0.0 **** 0.06
13970 H 11.626246513223094 92.51046592536514 74.63941250102988 H 0.0 **** 0.06
13971 C 98.01985319199031 99.94468282884509 61.47225622791621 C 0.0 **** -0.24
13972 H 98.01082292940663 99.46888074628541 62.45258280036543 H 0.0 **** 0.06
13973 H 98.30882628829016 99.21431551727483 60.71612425390759 H 0.0 **** 0.06
13974 H 98.73294248419921 100.7691526413414 61.47462008610403 H 0.0 **** 0.06
13975 H 97.02392511002932 100.32716250962588 61.24562432423428 H 0.0 **** 0.06
13976 C 15.819770833152965 37.08423940298893 105.7531699974324 C 0.0 **** -0.24
13977 H 15.546427595496734 37.34792164649565 106.77493100002101 H 0.0 **** 0.06
13978 H 15.55645871766075 36.04370392357064 105.56328572831029 H 0.0 **** 0.06
13979 H 16.89303420020145 37.21880097810938 105.61814657530289 H 0.0 **** 0.06
13980 H 15.281632217854863 37.727812917359806 105.05619694614956 H 0.0 **** 0.06
13981 C 4.084753763233479 32.177954628473 84.45576971477044 C 0.0 **** -0.24
13982 H 3.62656394500695 31.238652623131628 84.14313201906094 H 0.0 **** 0.06
13983 H 4.7855077165747275 32.511459429578764 83.69094307730668 H 0.0 **** 0.06
13984 H 4.615613122991817 32.02727708666376 85.39546060864427 H 0.0 **** 0.06
13985 H 3.3094974577792726 32.93120690459406 84.59303591931868 H 0.0 **** 0.06
13986 C 37.89969241372252 11.392309369067164 9.401326644009927 C 0.0 **** -0.24
13987 H 37.056881660865706 10.76843665544584 9.69829337784374 H 0.0 **** 0.06
13988 H 38.832385655076244 10.891015959628135 9.661719955614473 H 0.0 **** 0.06
13989 H 37.84427819717206 12.349051620019054 9.920601058787327 H 0.0 **** 0.06
13990 H 37.86650731776497 11.560144081145665 8.324772578373157 H 0.0 **** 0.06
13991 C 49.08932653364121 50.490589572380856 88.06216923399691 C 0.0 **** -0.24
13992 H 50.00739235262486 50.96161983315935 88.41411818252286 H 0.0 **** 0.06
13993 H 48.42338392994742 50.318168877152516 88.90848833421646 H 0.0 **** 0.06
13994 H 49.32749845871848 49.53943242073066 87.58680142182837 H 0.0 **** 0.06
13995 H 48.59888086089424 51.14477919006757 87.34156715452087 H 0.0 **** 0.06
13996 C 88.97681589504535 53.74810872767631 74.17886527178044 C 0.0 **** -0.24
13997 H 89.5372849439535 54.065439598140244 73.29946322633538 H 0.0 **** 0.06
13998 H 88.21280345042041 53.02870473020312 73.88200447066922 H 0.0 **** 0.06
13999 H 88.50206564913296 54.61434194127662 74.63840041332043 H 0.0 **** 0.06
14000 H 89.65548593270961 53.28371437943781 74.89391857610508 H 0.0 **** 0.06
14001 C 90.04863741161643 63.306317696828636 84.68011778422527 C 0.0 **** -0.24
14002 H 89.03587309500264 63.70965931702337 84.70583585463334 H 0.0 **** 0.06
14003 H 90.49171614521055 63.49986738462395 83.70221530662849 H 0.0 **** 0.06
14004 H 90.01554706799155 62.2317033993129 84.85798992349191 H 0.0 **** 0.06
14005 H 90.64972671072928 63.7844263229621 85.45269600707334 H 0.0 **** 0.06
14006 C 83.63714100043828 27.856692506270832 76.5553242037351 C 0.0 **** -0.24
14007 H 82.74100092193368 28.473697271353814 76.47784153734807 H 0.0 **** 0.06
14008 H 84.49047206067564 28.48643195502001 76.8078390371731 H 0.0 **** 0.06
14009 H 83.8197814327531 27.361116449925106 75.60224960576744 H 0.0 **** 0.06
14010 H 83.4957415433071 27.107395513233854 77.33356744509433 H 0.0 **** 0.06
14011 C 9.630343553036067 68.82872042466968 23.45065301053108 C 0.0 **** -0.24
14012 H 9.892718992281168 67.85087593507436 23.046618752164022 H 0.0 **** 0.06
14013 H 10.00029318169491 68.90961842814289 24.472822361785294 H 0.0 **** 0.06
14014 H 8.546995978325139 68.94386651846932 23.445885173538908 H 0.0 **** 0.06
14015 H 10.082133737397037 69.60745536615809 22.83716638297676 H 0.0 **** 0.06
14016 C 64.91610809607982 93.42381564904372 33.901153563279536 C 0.0 **** -0.24
14017 H 65.14922040054822 92.53229421655863 33.31971007587396 H 0.0 **** 0.06
14018 H 65.25466904301874 93.28683623125534 34.9284989555498 H 0.0 **** 0.06
14019 H 63.83917504937404 93.59234625320079 33.89215092536443 H 0.0 **** 0.06
14020 H 65.42226825833629 94.28484315259306 33.463986603392584 H 0.0 **** 0.06
14021 C 78.91525471851088 42.74673480251471 29.36415219566709 C 0.0 **** -0.24
14022 H 78.621050549465 42.77739981384582 28.314515583382672 H 0.0 **** 0.06
14023 H 79.42732031518895 41.80669057319261 29.56950812865989 H 0.0 **** 0.06
14024 H 78.02743724365695 42.82323587131373 29.992006571469005 H 0.0 **** 0.06
14025 H 79.58377612248944 43.580506223093664 29.57831039007999 H 0.0 **** 0.06
14026 C 47.34054868774831 0.1961188891347092 70.50822358268653 C 0.0 **** -0.24
14027 H 46.407447777414234 0.2994375805392906 71.06186725495837 H 0.0 **** 0.06
14028 H 48.17292561939206 0.13226860786153338 71.20959382532646 H 0.0 **** 0.06
14029 H 47.47640094343774 1.0627683431860078 69.86115458663045 H 0.0 **** 0.06
14030 H 47.30575500149925 -0.7089862704328311 69.90164345266572 H 0.0 **** 0.06
14031 C 82.18901076476828 45.657370255252154 106.76774611710513 C 0.0 **** -0.24
14032 H 81.71459296822155 46.63654948684983 106.69005906312009 H 0.0 **** 0.06
14033 H 81.42420212961287 44.8960249106394 106.91953010840257 H 0.0 **** 0.06
14034 H 82.87932039808942 45.654732534842346 107.61087837410417 H 0.0 **** 0.06
14035 H 82.73618638444913 45.44559645427422 105.84939593303827 H 0.0 **** 0.06
14036 C 32.90360685531371 92.74176967817121 9.071270755838183 C 0.0 **** -0.24
14037 H 33.51766886303119 93.40966933706531 8.468321166681227 H 0.0 **** 0.06
14038 H 32.69786844736152 91.82989963881809 8.508579666475887 H 0.0 **** 0.06
14039 H 31.964411716904486 93.23588478698574 9.319553112018633 H 0.0 **** 0.06
14040 H 33.43571966373855 92.4897275963427 9.989556245622317 H 0.0 **** 0.06
14041 C 79.1046219565128 8.1434308925202 15.706559243915194 C 0.0 **** -0.24
14042 H 78.08104900171122 8.503437788570182 15.807454217777888 H 0.0 **** 0.06
14043 H 79.72515938188872 8.587711274903825 16.485605267471783 H 0.0 **** 0.06
14044 H 79.4934981691174 8.423804164799037 14.727763301809318 H 0.0 **** 0.06
14045 H 79.1188824055024 7.0573778881788485 15.805639928769551 H 0.0 **** 0.06
14046 C 69.22242195250311 72.71052590682615 75.13547684383158 C 0.0 **** -0.24
14047 H 69.6793404624097 71.72164137849666 75.10239761636853 H 0.0 **** 0.06
14048 H 69.45760065750244 73.18780933239105 76.0867012593491 H 0.0 **** 0.06
14049 H 68.14104395132424 72.61426729105182 75.03394687107652 H 0.0 **** 0.06
14050 H 69.6119429792736 73.31754475983718 74.31775016862954 H 0.0 **** 0.06
14051 C 33.40322946455521 80.59426516052221 95.04485099633197 C 0.0 **** -0.24
14052 H 33.666156730380266 79.54618863893683 94.90033017090371 H 0.0 **** 0.06
14053 H 34.27010126683638 81.13704659743337 95.4222234936696 H 0.0 **** 0.06
14054 H 32.58612741533601 80.66844343075596 95.76232936220612 H 0.0 **** 0.06
14055 H 33.09151004702389 81.02486271762913 94.0923357794361 H 0.0 **** 0.06
14056 C 32.076487889762774 108.2937691460815 26.25143935055347 C 0.0 **** -0.24
14057 H 32.094501537922355 107.76115015032666 27.201667132522772 H 0.0 **** 0.06
14058 H 32.14504850674507 109.36583725082359 26.43453162005315 H 0.0 **** 0.06
14059 H 31.14542103159944 108.07302790596755 25.72903986399737 H 0.0 **** 0.06
14060 H 32.92081182024634 107.97409994076767 25.640300973979706 H 0.0 **** 0.06
14061 C 35.34434048803908 60.383118538829414 102.35020617483704 C 0.0 **** -0.24
14062 H 34.81403243605709 60.53537989225692 103.29026055651903 H 0.0 **** 0.06
14063 H 36.36052277766399 60.04766408143663 102.55751332055729 H 0.0 **** 0.06
14064 H 35.37776061584137 61.32120193529594 101.79531872865476 H 0.0 **** 0.06
14065 H 34.82558696521696 59.629227392074434 101.75857429934132 H 0.0 **** 0.06
14066 C 83.55867180789573 61.323775135906324 55.06328807877248 C 0.0 **** -0.24
14067 H 84.49234748363537 61.87046262765468 55.203270321512335 H 0.0 **** 0.06
14068 H 83.5676910719053 60.834454163074874 54.08986578119944 H 0.0 **** 0.06
14069 H 82.72039754978732 62.01817179917321 55.115036524580034 H 0.0 **** 0.06
14070 H 83.4572501764871 60.57349714743683 55.84738818559558 H 0.0 **** 0.06
14071 C 106.26342067194236 91.8319385823803 72.37142036157547 C 0.0 **** -0.24
14072 H 106.87930595545208 90.93298919138951 72.33897469989756 H 0.0 **** 0.06
14073 H 106.032391424519 92.07695645418448 73.40882539576637 H 0.0 **** 0.06
14074 H 105.33768227563706 91.65857247830681 71.82297073706405 H 0.0 **** 0.06
14075 H 106.80664662921592 92.65978472888125 71.91445562407802 H 0.0 **** 0.06
14076 C 60.13029821284497 74.28069722477915 25.237681714516555 C 0.0 **** -0.24
14077 H 61.087482377464546 74.80081630376856 25.210737857273898 H 0.0 **** 0.06
14078 H 59.33730786224121 74.9647791773491 24.93329601792135 H 0.0 **** 0.06
14079 H 59.93599564501411 73.92798277519853 26.250366954673723 H 0.0 **** 0.06
14080 H 60.15915150168008 73.43092777730271 24.55563643382186 H 0.0 **** 0.06
14081 C 104.94133291460926 16.38652929964593 34.59954520612976 C 0.0 **** -0.24
14082 H 105.525103482795 15.516791918378289 34.30004205968075 H 0.0 **** 0.06
14083 H 104.94938849462545 16.47165189488004 35.68688173485688 H 0.0 **** 0.06
14084 H 103.91496616572698 16.27366922126828 34.25216469782151 H 0.0 **** 0.06
14085 H 105.37692152251438 17.284422260378733 34.1612665484933 H 0.0 **** 0.06
14086 C 61.93116853128592 29.901863485359627 89.23630458429218 C 0.0 **** -0.24
14087 H 61.303386583301375 30.02246992308551 90.1198504920558 H 0.0 **** 0.06
14088 H 61.30080952195149 29.843699441925537 88.34848258527546 H 0.0 **** 0.06
14089 H 62.515182738918384 28.986940348856592 89.32932273267085 H 0.0 **** 0.06
14090 H 62.60305828016371 30.755524348248855 89.1501323287105 H 0.0 **** 0.06
14091 C 31.749707466383477 15.791752782421696 108.45109346024968 C 0.0 **** -0.24
14092 H 30.944540798684855 15.323261427006088 109.01644276540107 H 0.0 **** 0.06
14093 H 31.719746621253954 16.870119234437283 108.60291723973693 H 0.0 **** 0.06
14094 H 31.62543594226735 15.569789635343795 107.39069853444929 H 0.0 **** 0.06
14095 H 32.70885958071658 15.402522902955951 108.79386563116167 H 0.0 **** 0.06
14096 C 102.8856967519115 9.152013760385895 75.37031829732922 C 0.0 **** -0.24
14097 H 101.94588244394313 9.48759917312247 74.9310952039757 H 0.0 **** 0.06
14098 H 103.62026192254808 8.995013532168375 74.58081890121036 H 0.0 **** 0.06
14099 H 102.72183077341919 8.216531330346777 75.90612517361285 H 0.0 **** 0.06
14100 H 103.25190343017695 9.90895393397857 76.06396852515181 H 0.0 **** 0.06
14101 C 19.938957503141296 43.28413999524349 35.27628070480549 C 0.0 **** -0.24
14102 H 20.663500780206476 44.071462943864674 35.06834801748474 H 0.0 **** 0.06
14103 H 19.75247368916621 42.711817436557226 34.36721354481275 H 0.0 **** 0.06
14104 H 19.00737711048282 43.73079507340259 35.62377257860307 H 0.0 **** 0.06
14105 H 20.334173849104985 42.62237732176584 36.04755344759629 H 0.0 **** 0.06
14106 C 38.17941547508764 98.25023192803278 37.648894014238806 C 0.0 **** -0.24
14107 H 39.21217141274968 98.52060291179293 37.867292854156545 H 0.0 **** 0.06
14108 H 37.57891893338365 99.15613267507837 37.55457410299232 H 0.0 **** 0.06
14109 H 37.7852044347336 97.63586469649962 38.45867113033063 H 0.0 **** 0.06
14110 H 38.13976236450111 97.68896838283683 36.7151567528432 H 0.0 **** 0.06
14111 C 46.21204500488511 65.16201717242484 5.676356512496568 C 0.0 **** -0.24
14112 H 45.91355032791711 64.40313228733226 6.400157654775683 H 0.0 **** 0.06
14113 H 45.32465220488007 65.66438811535818 5.29167114992174 H 0.0 **** 0.06
14114 H 46.74682516974826 64.68790431195566 4.85340052560403 H 0.0 **** 0.06
14115 H 46.86166907594492 65.88985791552102 6.1600006699272285 H 0.0 **** 0.06
14116 C 44.229775397284335 16.06710576103694 77.88010122850591 C 0.0 **** -0.24
14117 H 44.352738214591916 17.147663973422226 77.94820734453339 H 0.0 **** 0.06
14118 H 44.82004577141533 15.686692923607836 77.04621852067618 H 0.0 **** 0.06
14119 H 43.1783203209933 15.830915651290496 77.71953725739166 H 0.0 **** 0.06
14120 H 44.56917209603535 15.60379232228712 78.80689784465011 H 0.0 **** 0.06
14121 C 9.120396318694588 49.874781007751615 98.01729950171136 C 0.0 **** -0.24
14122 H 9.34594784142621 50.88240032621208 98.36585822625352 H 0.0 **** 0.06
14123 H 9.079076478414606 49.86805237027371 96.92719680108775 H 0.0 **** 0.06
14124 H 8.157526516395762 49.55820630762581 98.41870405230338 H 0.0 **** 0.06
14125 H 9.897833321738176 49.190616072163664 98.35555882417975 H 0.0 **** 0.06
14126 C 16.908511572881423 95.56736362936758 107.70946451223377 C 0.0 **** -0.24
14127 H 16.448215282199328 95.26680175917537 106.76790553212291 H 0.0 **** 0.06
14128 H 16.21166397030862 96.1912450805948 108.27062298828909 H 0.0 **** 0.06
14129 H 17.818112628016422 96.13180266684171 107.50484812014629 H 0.0 **** 0.06
14130 H 17.154302622710702 94.6809775870224 108.29246949809779 H 0.0 **** 0.06
14131 C 68.5912863912871 43.83092484912396 83.29310952107986 C 0.0 **** -0.24
14132 H 68.42671782088598 42.76866585490728 83.11343096031908 H 0.0 **** 0.06
14133 H 69.37595308301624 44.19328515282592 82.62887568485496 H 0.0 **** 0.06
14134 H 68.89400030548956 43.98038031307948 84.32884677635968 H 0.0 **** 0.06
14135 H 67.66965979490911 44.37854664064338 83.10048791591825 H 0.0 **** 0.06
14136 C 87.29187606998505 84.96277637461685 47.17556451211648 C 0.0 **** -0.24
14137 H 87.04865600472868 84.07209653931417 47.75515560675923 H 0.0 **** 0.06
14138 H 88.2690671912888 84.83613872157909 46.707519733360705 H 0.0 **** 0.06
14139 H 87.31340216384564 85.83071532066904 47.83455464853729 H 0.0 **** 0.06
14140 H 86.53602934716702 85.11167638559564 46.40374395700356 H 0.0 **** 0.06
14141 C 74.31747360969183 54.88245106932537 69.70403832698017 C 0.0 **** -0.24
14142 H 74.2057680935842 55.195961918171534 70.74205288511934 H 0.0 **** 0.06
14143 H 73.34096134043335 54.87659576624441 69.21936635889148 H 0.0 **** 0.06
14144 H 74.74482426359774 53.88033643497458 69.67211568004308 H 0.0 **** 0.06
14145 H 74.97816118035459 55.57599276793273 69.18407657580175 H 0.0 **** 0.06
14146 C 0.9352359942323574 81.31331419964306 48.92162837710379 C 0.0 **** -0.24
14147 H 1.575988866564785 80.43220903544164 48.940858283142916 H 0.0 **** 0.06
14148 H 1.4721604698700617 82.14343740376083 48.46257613146943 H 0.0 **** 0.06
14149 H 0.6541516136451833 81.58058651011768 49.94083126955843 H 0.0 **** 0.06
14150 H 0.03691811555916047 81.09610565504005 48.342674236396135 H 0.0 **** 0.06
14151 C 95.87195656521101 79.33839349428803 15.586244824982316 C 0.0 **** -0.24
14152 H 95.32392374963584 78.45325238932205 15.260828571145055 H 0.0 **** 0.06
14153 H 95.59282918419132 79.58001294087211 16.612410701584963 H 0.0 **** 0.06
14154 H 95.62675629409586 80.1769363444865 14.935197168849925 H 0.0 **** 0.06
14155 H 96.94281922051863 79.14027287523831 15.537615633367466 H 0.0 **** 0.06
14156 C 11.036849748669567 95.68332471107504 48.558812619010645 C 0.0 **** -0.24
14157 H 11.55395272571235 95.87761004243941 49.49808205280906 H 0.0 **** 0.06
14158 H 10.13015227170392 96.2875544392545 48.5119342267419 H 0.0 **** 0.06
14159 H 10.77321425820351 94.62672653263235 48.5004510251317 H 0.0 **** 0.06
14160 H 11.690079739058476 95.94140782997437 47.72478317135966 H 0.0 **** 0.06
14161 C 91.03438234496559 36.42468151205355 109.52886015435513 C 0.0 **** -0.24
14162 H 91.71915068333715 36.539214155951754 108.68849000128722 H 0.0 **** 0.06
14163 H 90.37224144155033 35.579313564789004 109.34418802539042 H 0.0 **** 0.06
14164 H 90.44314671310423 37.33335284752974 109.64159086371421 H 0.0 **** 0.06
14165 H 91.60556443773675 36.24697841334722 110.43963618175209 H 0.0 **** 0.06
14166 C 48.2155239047006 103.29891907901748 4.421503528823555 C 0.0 **** -0.24
14167 H 48.38903770400111 102.32744141102646 3.9580129403464124 H 0.0 **** 0.06
14168 H 47.143461703432706 103.45705375737253 4.539297651394762 H 0.0 **** 0.06
14169 H 48.63136187373084 104.08301003042683 3.789126642951125 H 0.0 **** 0.06
14170 H 48.69770410672161 103.32626967013243 5.398526338991028 H 0.0 **** 0.06
14171 C 94.17155328113259 68.309085649107 89.23881488932878 C 0.0 **** -0.24
14172 H 93.34129857956745 68.90981633346476 89.61171062579095 H 0.0 **** 0.06
14173 H 95.11297715574906 68.74160658630609 89.57785489901906 H 0.0 **** 0.06
14174 H 94.14819773986713 68.2944321201656 88.14955957792912 H 0.0 **** 0.06
14175 H 94.08196894314261 67.29119077502315 89.61822503751443 H 0.0 **** 0.06
14176 C 92.25038526317562 81.46850970904003 57.09843797083681 C 0.0 **** -0.24
14177 H 92.15565021390955 82.22259405826762 56.316697291103935 H 0.0 **** 0.06
14178 H 91.91650191571165 80.50371871385568 56.71547102130654 H 0.0 **** 0.06
14179 H 91.63536250712878 81.7525736059153 57.953117546237934 H 0.0 **** 0.06
14180 H 93.29256173235925 81.3965062456881 57.40831706802595 H 0.0 **** 0.06
14181 C 66.40399284055894 46.3264256088101 90.0551436497228 C 0.0 **** -0.24
14182 H 65.95655880604616 46.97105564320316 90.81225351089441 H 0.0 **** 0.06
14183 H 66.19874314895335 46.733932802780714 89.0647094519874 H 0.0 **** 0.06
14184 H 65.97714795779024 45.327162213733686 90.1325866912137 H 0.0 **** 0.06
14185 H 67.48098764164999 46.27506375401816 90.21253966029491 H 0.0 **** 0.06
14186 C 109.45935494460483 40.902584380024315 14.096552835502365 C 0.0 **** -0.24
14187 H 109.9699106200645 41.53579889024264 13.371398617082747 H 0.0 **** 0.06
14188 H 109.14011928111967 41.50784666664672 14.945516672063604 H 0.0 **** 0.06
14189 H 110.1393113037079 40.122790293023705 14.440368121850838 H 0.0 **** 0.06
14190 H 108.58807857352693 40.44390167018414 13.628927931012427 H 0.0 **** 0.06
14191 C 95.52093755685743 86.73195155579867 97.05810746340586 C 0.0 **** -0.24
14192 H 95.03913570596558 85.82544303441705 97.42504845519346 H 0.0 **** 0.06
14193 H 95.27723560708773 86.87093546953702 96.00472185788584 H 0.0 **** 0.06
14194 H 96.60087451377944 86.64102132026895 97.17269029816731 H 0.0 **** 0.06
14195 H 95.1654292881388 87.58874893609115 97.62965751028656 H 0.0 **** 0.06
14196 C 98.16300632545057 90.40972958307933 68.02840241401057 C 0.0 **** -0.24
14197 H 98.22349787846824 89.32373113513046 68.09448943255754 H 0.0 **** 0.06
14198 H 99.14429786458007 90.8399403752662 68.23301199348651 H 0.0 **** 0.06
14199 H 97.4441268010203 90.77942366077983 68.75975384884751 H 0.0 **** 0.06
14200 H 97.84227837544145 90.69600508453473 67.02683798748546 H 0.0 **** 0.06
14201 C 110.18296854542473 92.81057638607237 1.8016452384632977 C 0.0 **** -0.24
14202 H 110.51690667113031 92.23739845563225 0.9363927825955187 H 0.0 **** 0.06
14203 H 110.78691644759769 93.71405861633264 1.8941669404418295 H 0.0 **** 0.06
14204 H 110.29138383167772 92.20604653835574 2.7014908431406663 H 0.0 **** 0.06
14205 H 109.13616093609362 93.0854189424617 1.6726964867551555 H 0.0 **** 0.06
14206 C 64.65183955855372 98.21436459497244 37.46329369631065 C 0.0 **** -0.24
14207 H 63.903720036622 97.51191677181026 37.82823276505278 H 0.0 **** 0.06
14208 H 65.64838238032158 97.8086153772191 37.64006025409226 H 0.0 **** 0.06
14209 H 64.54728446712195 99.16358514871507 37.98840791234014 H 0.0 **** 0.06
14210 H 64.50901287225912 98.37344309445896 36.3942590929298 H 0.0 **** 0.06
14211 C 58.71923776638417 54.860661882900395 91.70455013283683 C 0.0 **** -0.24
14212 H 59.37337957172886 55.66842304587252 91.3747610325461 H 0.0 **** 0.06
14213 H 59.259531538804794 53.914986076392964 91.65767459512992 H 0.0 **** 0.06
14214 H 57.845152706173565 54.813601874617724 91.05545536143589 H 0.0 **** 0.06
14215 H 58.40016638870992 55.04705268112417 92.72971074559453 H 0.0 **** 0.06
14216 C 111.30651638365231 18.392911859803803 13.856387575688991 C 0.0 **** -0.24
14217 H 110.22395694208461 18.392543747537047 13.976713025434183 H 0.0 **** 0.06
14218 H 111.616600171953 17.48155910775955 13.344801205447695 H 0.0 **** 0.06
14219 H 111.7810783353907 18.4378045073004 14.837215827150331 H 0.0 **** 0.06
14220 H 111.60682727519918 19.26026693366819 13.26822607382211 H 0.0 **** 0.06
14221 C 32.08276777928313 0.7847681288887429 80.59338032694066 C 0.0 **** -0.24
14222 H 31.460935757480854 0.6790303787648355 81.48187445059034 H 0.0 **** 0.06
14223 H 31.46595906455849 0.6610177944622961 79.702799449542 H 0.0 **** 0.06
14224 H 32.86346512468333 0.024342406313010656 80.60395154080791 H 0.0 **** 0.06
14225 H 32.53847787743251 1.7747658127152306 80.58482069505277 H 0.0 **** 0.06
14226 C 90.1167225457335 19.454388211109112 64.91491870176338 C 0.0 **** -0.24
14227 H 90.4931710266091 18.436821423240264 64.81242119860397 H 0.0 **** 0.06
14228 H 89.40832537597348 19.497814004597593 65.7424584678997 H 0.0 **** 0.06
14229 H 89.6169578402706 19.751498657438237 63.99277010837662 H 0.0 **** 0.06
14230 H 90.94837125256598 20.130774820895184 65.11126265709535 H 0.0 **** 0.06
14231 C 112.58628771308355 43.22027293492374 45.00854524542094 C 0.0 **** -0.24
14232 H 112.77568967870775 42.42773037628149 45.732639569108805 H 0.0 **** 0.06
14233 H 113.1726592286154 43.03528543830794 44.10689918020744 H 0.0 **** 0.06
14234 H 112.87152499920376 44.180883936638736 45.437380388306785 H 0.0 **** 0.06
14235 H 111.52567069379674 43.235370108045174 44.75513436479218 H 0.0 **** 0.06
14236 C 64.34136423888003 83.67962664309113 6.4488517884325915 C 0.0 **** -0.24
14237 H 63.6836808998936 82.93207918703274 6.894048261637408 H 0.0 **** 0.06
14238 H 65.33036210968078 83.24787255689932 6.295313486029784 H 0.0 **** 0.06
14239 H 64.41858200290324 84.5380611146881 7.116327691568074 H 0.0 **** 0.06
14240 H 63.93122519920189 83.99951320887152 5.490924888071731 H 0.0 **** 0.06
14241 C 92.95124654495223 112.31258434797627 56.241233697151664 C 0.0 **** -0.24
14242 H 93.703327344945 111.89849915955772 55.569524439293616 H 0.0 **** 0.06
14243 H 92.58229318328048 111.5279952561992 56.90193542342726 H 0.0 **** 0.06
14244 H 92.12391741518539 112.71409289642322 55.65603903882656 H 0.0 **** 0.06
14245 H 93.39578092190283 113.11007974749836 56.83610143849861 H 0.0 **** 0.06
14246 C 21.265091405642806 49.24060857693115 83.45601688227393 C 0.0 **** -0.24
14247 H 21.326912624752936 48.90116819836271 84.49028318869836 H 0.0 **** 0.06
14248 H 20.745696347652938 48.4909989443683 82.85791017206853 H 0.0 **** 0.06
14249 H 22.26978993947455 49.387416772934614 83.06082509935771 H 0.0 **** 0.06
14250 H 20.717040448126397 50.182478732488505 83.41511202569345 H 0.0 **** 0.06
14251 C 15.394404756047322 54.100063676633425 32.59423355863715 C 0.0 **** -0.24
14252 H 15.457766289814941 55.09305341623183 33.03827188171357 H 0.0 **** 0.06
14253 H 14.765523664575284 53.46376593897627 33.21697841473207 H 0.0 **** 0.06
14254 H 16.392927586560376 53.668574522583754 32.52421457308931 H 0.0 **** 0.06
14255 H 14.960413000231597 54.17534352117915 31.59658053274456 H 0.0 **** 0.06
14256 C 8.63375258367796 101.20337566057009 91.91453370281266 C 0.0 **** -0.24
14257 H 9.131336175321309 100.55869279036989 92.63978677451047 H 0.0 **** 0.06
14258 H 8.057909085031184 101.96476416968028 92.44192754951078 H 0.0 **** 0.06
14259 H 7.966361196052958 100.60543880222502 91.2954379654322 H 0.0 **** 0.06
14260 H 9.3813719381113 101.68446709859865 91.28416182925227 H 0.0 **** 0.06
14261 C 63.77544503513605 4.097638617822696 100.96771602768956 C 0.0 **** -0.24
14262 H 63.258502032919175 3.2203494198517717 100.57769675234627 H 0.0 **** 0.06
14263 H 63.311663071364784 5.000152587889971 100.56733206520468 H 0.0 **** 0.06
14264 H 64.82316898063576 4.063843019193683 100.6690727981152 H 0.0 **** 0.06
14265 H 63.70740578258593 4.1053530109393535 102.05497793984574 H 0.0 **** 0.06
14266 C 40.059455791468594 23.083931983565577 13.51044510572757 C 0.0 **** -0.24
14267 H 39.24436738055459 23.593149043050616 14.02441615879303 H 0.0 **** 0.06
14268 H 39.81819440582282 22.02578491105689 13.40735713590675 H 0.0 **** 0.06
14269 H 40.977429418172335 23.19390435602996 14.086836313964 H 0.0 **** 0.06
14270 H 40.195273170120714 23.52335637840521 12.52205942691262 H 0.0 **** 0.06
14271 C 13.078207915125418 76.46064340895967 85.72027078931353 C 0.0 **** -0.24
14272 H 13.746889292818516 75.68955964426033 85.33966423982457 H 0.0 **** 0.06
14273 H 12.29457632485229 76.6568894455566 84.98791741789728 H 0.0 **** 0.06
14274 H 13.643442622751873 77.37456425059636 85.90231143758149 H 0.0 **** 0.06
14275 H 12.627221219866254 76.12048883805758 86.65327793989536 H 0.0 **** 0.06
14276 C 36.86407308951049 83.64229778223219 42.88420947510434 C 0.0 **** -0.24
14277 H 37.211070252667675 84.66861804585511 43.00204430814131 H 0.0 **** 0.06
14278 H 37.206291476514664 83.25080171238403 41.92593664091358 H 0.0 **** 0.06
14279 H 35.77468622113563 83.62102751419346 42.9175595759386 H 0.0 **** 0.06
14280 H 37.264244407723716 83.02874385649636 43.69129737542393 H 0.0 **** 0.06
14281 C 60.2079552458578 61.55396473497283 69.63392326403124 C 0.0 **** -0.24
14282 H 61.119356859236 60.979410927200185 69.80559601041315 H 0.0 **** 0.06
14283 H 59.45921803320548 60.91482508770721 69.16515196587093 H 0.0 **** 0.06
14284 H 60.42802413412925 62.396692663295546 68.9793053154138 H 0.0 **** 0.06
14285 H 59.82685515355006 61.922503007511104 70.58630430655734 H 0.0 **** 0.06
14286 C 94.4461661497663 15.024553995229525 2.9282909429244874 C 0.0 **** -0.24
14287 H 94.3777744364155 16.089666658827085 2.7054030386545183 H 0.0 **** 0.06
14288 H 95.47937842395137 14.769037282748258 3.166366718435471 H 0.0 **** 0.06
14289 H 94.11991310973215 14.450308758629312 2.0603146554021716 H 0.0 **** 0.06
14290 H 93.80834617825204 14.789701555011629 3.7799871109574426 H 0.0 **** 0.06
14291 C 41.45659288716205 47.85369497219605 22.68377255663512 C 0.0 **** -0.24
14292 H 40.41711065765445 48.1556889080278 22.80679969367526 H 0.0 **** 0.06
14293 H 41.4977266051492 46.80560258252348 22.387162116260924 H 0.0 **** 0.06
14294 H 41.987152437578594 47.98554166907164 23.62714069390148 H 0.0 **** 0.06
14295 H 41.92480228736151 48.468955274938 21.914885597878026 H 0.0 **** 0.06
14296 C 35.80356018738391 16.043959174198022 94.45834014262022 C 0.0 **** -0.24
14297 H 35.23990679701072 15.225955697932733 94.00822723044661 H 0.0 **** 0.06
14298 H 35.22529867560917 16.96489961120659 94.38754683307201 H 0.0 **** 0.06
14299 H 36.749576787738135 16.16700047394221 93.93014332753052 H 0.0 **** 0.06
14300 H 35.99979685269622 15.816711795273989 95.50537552644664 H 0.0 **** 0.06
14301 C 31.681248397732304 105.05137545875417 51.526385676642064 C 0.0 **** -0.24
14302 H 31.752937391258968 105.03208666491213 52.61457183199968 H 0.0 **** 0.06
14303 H 32.479730413728845 105.67390570739971 51.120868683029784 H 0.0 **** 0.06
14304 H 30.715345389687656 105.46348263681531 51.23469503542759 H 0.0 **** 0.06
14305 H 31.776130369093607 104.037804961423 51.13766905760457 H 0.0 **** 0.06
14306 C 65.79144187731967 63.51844367935596 111.54560329761338 C 0.0 **** -0.24
14307 H 66.62843721007121 64.05494778284239 111.09965206440829 H 0.0 **** 0.06
14308 H 66.10410320789015 62.50556953191252 111.80167029687671 H 0.0 **** 0.06
14309 H 64.96551965542284 63.47625050375412 110.83548456504933 H 0.0 **** 0.06
14310 H 65.46722039339627 64.03762559438204 112.44769917815054 H 0.0 **** 0.06
14311 C 96.7357495881219 3.524150147054117 5.363136251964702 C 0.0 **** -0.24
14312 H 96.05852176340002 4.315314458162362 5.682838959824432 H 0.0 **** 0.06
14313 H 97.03526067515648 3.6988313200609966 4.3298773436545375 H 0.0 **** 0.06
14314 H 96.23037994776249 2.5612098058844364 5.437599807052596 H 0.0 **** 0.06
14315 H 97.61883596616872 3.52124500410892 6.002228897327484 H 0.0 **** 0.06
14316 C 108.17238456741926 108.60132647552737 97.37448993327925 C 0.0 **** -0.24
14317 H 109.13373623832626 108.61270468566741 97.88752975509519 H 0.0 **** 0.06
14318 H 107.42429986635004 108.13232101407073 98.0148465798635 H 0.0 **** 0.06
14319 H 108.26179328700076 108.03726008699346 96.44604414375632 H 0.0 **** 0.06
14320 H 107.86871324863513 109.62394940395129 97.14992038215291 H 0.0 **** 0.06
14321 C 77.56722045426494 110.35864496137853 16.726604426285547 C 0.0 **** -0.24
14322 H 78.44713315195844 109.71589064048521 16.7275404570166 H 0.0 **** 0.06
14323 H 77.18510861363274 110.4488374282812 15.70980589885815 H 0.0 **** 0.06
14324 H 77.83968524790168 111.34638673449538 17.101238428697087 H 0.0 **** 0.06
14325 H 76.80009754997275 109.92523116962104 17.367764535248995 H 0.0 **** 0.06
14326 C 50.09036479647718 25.073967405895075 0.9411842925275096 C 0.0 **** -0.24
14327 H 49.330226632488234 24.38657185930299 0.5716620957252587 H 0.0 **** 0.06
14328 H 49.613998074742405 25.86542572061859 1.519956168019732 H 0.0 **** 0.06
14329 H 50.62624672939039 25.511499294539362 0.09866853063387282 H 0.0 **** 0.06
14330 H 50.792373947708306 24.532040659860115 1.5761732960087613 H 0.0 **** 0.06
14331 C 72.36638641506454 58.490102874796605 35.28532052907465 C 0.0 **** -0.24
14332 H 72.96251953227576 58.03129644463712 34.4965858785204 H 0.0 **** 0.06
14333 H 72.80195380755745 59.451410474841396 35.55794139636652 H 0.0 **** 0.06
14334 H 72.35352589657333 57.835757207474046 36.15726248446692 H 0.0 **** 0.06
14335 H 71.34701433210472 58.639812974554275 34.92909047569849 H 0.0 **** 0.06
14336 C 82.0060984272348 82.56161635466549 23.445108250860073 C 0.0 **** -0.24
14337 H 82.71586862004378 83.30958652014141 23.092806885631305 H 0.0 **** 0.06
14338 H 82.45137985154636 81.56961779394246 23.36191712213099 H 0.0 **** 0.06
14339 H 81.10045446250626 82.60685002602159 22.839699834234626 H 0.0 **** 0.06
14340 H 81.75593335907178 82.76178866563978 24.48788770223874 H 0.0 **** 0.06
14341 C 50.750356843102054 103.3659026850845 95.41193989654982 C 0.0 **** -0.24
14342 H 51.28192108181034 102.8898517274352 94.58784624433213 H 0.0 **** 0.06
14343 H 49.6850987705956 103.40354584701697 95.18231701593575 H 0.0 **** 0.06
14344 H 51.12896233489474 104.37847149939392 95.55009794439098 H 0.0 **** 0.06
14345 H 50.90524178345677 102.79184879687472 96.32467923191004 H 0.0 **** 0.06
14346 C 29.84165010895589 97.01188111657561 58.42085210951709 C 0.0 **** -0.24
14347 H 29.438188994648385 98.02374153833094 58.45866750482697 H 0.0 **** 0.06
14348 H 30.56292403904189 96.93911318323026 57.607573516305195 H 0.0 **** 0.06
14349 H 29.029986162764487 96.30441592807941 58.25200004706816 H 0.0 **** 0.06
14350 H 30.333608343097012 96.78144310204536 59.36522054504007 H 0.0 **** 0.06
14351 C 54.94329927752054 42.09456702771152 26.812233054207496 C 0.0 **** -0.24
14352 H 55.68506116824764 41.325903384538194 27.02800808308615 H 0.0 **** 0.06
14353 H 54.117659894438106 41.6536211228006 26.252434173928634 H 0.0 **** 0.06
14354 H 55.4025948670957 42.886196327746376 26.22038172834408 H 0.0 **** 0.06
14355 H 54.56828028136246 42.51068114780023 27.746572449872588 H 0.0 **** 0.06
14356 C 8.81425662946431 33.37200014316696 108.92670041953389 C 0.0 **** -0.24
14357 H 8.682705327557173 33.86190760326889 109.89134507490293 H 0.0 **** 0.06
14358 H 9.759744904706551 32.82806047423509 108.92159684716147 H 0.0 **** 0.06
14359 H 8.821686901817372 34.12232208888713 108.1366433906154 H 0.0 **** 0.06
14360 H 7.99303525413076 32.67522098760489 108.75939339894673 H 0.0 **** 0.06
14361 C 9.608075961448264 76.23172702408709 101.37687305583867 C 0.0 **** -0.24
14362 H 9.20598924326481 77.23628679062551 101.50790865983859 H 0.0 **** 0.06
14363 H 9.478877698382917 75.92121505081121 100.3398684585176 H 0.0 **** 0.06
14364 H 9.078257032668603 75.54072352928742 102.03260887701381 H 0.0 **** 0.06
14365 H 10.669123707434153 76.22967875789098 101.62703678701797 H 0.0 **** 0.06
14366 C 49.33693948485009 60.6616777755703 76.48280418652456 C 0.0 **** -0.24
14367 H 48.578471743086936 60.869493768789454 75.72756738300154 H 0.0 **** 0.06
14368 H 48.87550355390465 60.15405070881329 77.3311019835246 H 0.0 **** 0.06
14369 H 49.78352651578112 61.59770044582086 76.81721999825925 H 0.0 **** 0.06
14370 H 50.10927080129679 60.0230164107096 76.05431336760324 H 0.0 **** 0.06
14371 C 104.93782346802428 14.566920704614269 21.555780667960683 C 0.0 **** -0.24
14372 H 104.48170435050989 14.664707803517544 20.57057793200212 H 0.0 **** 0.06
14373 H 105.97677298624814 14.892570802240122 21.510104953580093 H 0.0 **** 0.06
14374 H 104.89678243560252 13.52464473774149 21.872703139096835 H 0.0 **** 0.06
14375 H 104.39389264852105 15.18527081599077 22.27015579239285 H 0.0 **** 0.06
14376 C 48.574203929128146 18.910393491641997 54.16155155369472 C 0.0 **** -0.24
14377 H 48.88002823883906 19.933685778672356 54.38040493410506 H 0.0 **** 0.06
14378 H 48.23423932241144 18.846699450683246 53.12775730925904 H 0.0 **** 0.06
14379 H 47.762375185216854 18.622762652417464 54.83014486877573 H 0.0 **** 0.06
14380 H 49.42020626900907 18.239404214400366 54.30810455428298 H 0.0 **** 0.06
14381 C 36.00487129329014 21.933879215506977 93.6181104380837 C 0.0 **** -0.24
14382 H 35.56211940514231 22.206831660761054 92.65972629243996 H 0.0 **** 0.06
14383 H 35.535152349092186 22.513745152278418 94.41339407909632 H 0.0 **** 0.06
14384 H 37.073617884756345 22.14429631592509 93.59816831828573 H 0.0 **** 0.06
14385 H 35.84651885663004 20.871430509932566 93.80141512390665 H 0.0 **** 0.06
14386 C 78.70651320437918 59.21715018947032 60.444195710402596 C 0.0 **** -0.24
14387 H 79.64491519340999 59.31090948142918 59.89710858263015 H 0.0 **** 0.06
14388 H 77.87618821533368 59.19116365624774 59.737350893279256 H 0.0 **** 0.06
14389 H 78.58815401134981 60.06901133094982 61.11324805638429 H 0.0 **** 0.06
14390 H 78.71625553509196 58.29619263401341 61.027355783485575 H 0.0 **** 0.06
14391 C 35.62619066549067 32.810198428633896 39.84059439527141 C 0.0 **** -0.24
14392 H 35.31599757692587 32.1707358583362 40.667296448689285 H 0.0 **** 0.06
14393 H 36.67645140315595 33.07678249600016 39.96198117385484 H 0.0 **** 0.06
14394 H 35.01942091507195 33.71538780155103 39.833450889410074 H 0.0 **** 0.06
14395 H 35.49314860319981 32.27650248270152 38.89952168855848 H 0.0 **** 0.06
14396 C 11.403917886997846 78.74804426776245 44.97486676384105 C 0.0 **** -0.24
14397 H 12.170786970989809 77.97958337181473 45.071303472565724 H 0.0 **** 0.06
14398 H 11.75982593305315 79.53394144296794 44.3073402967881 H 0.0 **** 0.06
14399 H 11.190777269321472 79.17241800570469 45.955812419240026 H 0.0 **** 0.06
14400 H 10.496723221024268 78.30641447215442 44.56493843271271 H 0.0 **** 0.06
14401 C 74.01587670760884 17.77707075565496 63.48707447336335 C 0.0 **** -0.24
14402 H 73.75872428047495 16.873856623126926 64.0408066059662 H 0.0 **** 0.06
14403 H 74.59451841121248 18.443343489719155 64.12740864428696 H 0.0 **** 0.06
14404 H 73.10216029634876 18.280989162080004 63.1697087060343 H 0.0 **** 0.06
14405 H 74.60714452383417 17.510343050145707 62.61050665077448 H 0.0 **** 0.06
14406 C 7.600652454495096 39.6235596903181 49.57066541319348 C 0.0 **** -0.24
14407 H 7.241921877555093 40.41728576905797 48.91527493281537 H 0.0 **** 0.06
14408 H 6.803617766893646 39.33092354381051 50.25571380616281 H 0.0 **** 0.06
14409 H 8.457503621658297 39.981587765878714 50.14112079868633 H 0.0 **** 0.06
14410 H 7.897687837263433 38.763229545740955 48.970590055169325 H 0.0 **** 0.06
14411 C 107.41147446042488 27.56825288312278 42.209691154541986 C 0.0 **** -0.24
14412 H 106.70047226701926 27.340798828734904 41.41420574634799 H 0.0 **** 0.06
14413 H 107.17502527469182 28.54043108953971 42.64167458186131 H 0.0 **** 0.06
14414 H 108.42096669630719 27.588531024974685 41.79767334287391 H 0.0 **** 0.06
14415 H 107.34965237070546 26.80213532200466 42.981789097090086 H 0.0 **** 0.06
14416 C 105.30202518216038 2.9349380314686098 2.0766978316855784 C 0.0 **** -0.24
14417 H 106.0121690373903 2.3827625015011247 1.4606659230705077 H 0.0 **** 0.06
14418 H 104.62139476351436 2.2347223829172798 2.561149766349615 H 0.0 **** 0.06
14419 H 104.73203127949492 3.62030452975816 1.448923876588168 H 0.0 **** 0.06
14420 H 105.84213439945907 3.500731861831108 2.835462442149435 H 0.0 **** 0.06
14421 C 90.98904081896927 98.48863248822676 39.791102599921345 C 0.0 **** -0.24
14422 H 90.26946964114353 99.21210571951491 39.40495584244373 H 0.0 **** 0.06
14423 H 91.64594626154127 98.16450060682888 38.98371906488755 H 0.0 **** 0.06
14424 H 90.4564217591174 97.62792850034577 40.19431831623531 H 0.0 **** 0.06
14425 H 91.5818538478747 98.95226693836662 40.5797648941988 H 0.0 **** 0.06
14426 C 55.63008612999235 26.838665078656412 81.23331657885186 C 0.0 **** -0.24
14427 H 55.004931128110684 25.961670272116585 81.39695533955049 H 0.0 **** 0.06
14428 H 56.06921745992193 27.153091359756537 82.18073847375089 H 0.0 **** 0.06
14429 H 55.02321461646608 27.648035065475703 80.82807646327242 H 0.0 **** 0.06
14430 H 56.4250473040901 26.591592492120903 80.52878387520366 H 0.0 **** 0.06
14431 C 12.671650967040364 16.356966881461886 39.97466079128816 C 0.0 **** -0.24
14432 H 11.746761057611252 16.278604768572734 40.545514876514744 H 0.0 **** 0.06
14433 H 13.356906610989427 17.03515078737192 40.48429276247208 H 0.0 **** 0.06
14434 H 12.45192318142017 16.741641585279666 38.97919536680445 H 0.0 **** 0.06
14435 H 13.130815283219476 15.371468771408303 39.89061882443008 H 0.0 **** 0.06
14436 C 86.69441796036267 111.50241307885393 20.090940895769165 C 0.0 **** -0.24
14437 H 86.52267278070173 110.93002962298914 19.179165604196555 H 0.0 **** 0.06
14438 H 87.58988449108148 111.13136779216883 20.590411143641546 H 0.0 **** 0.06
14439 H 85.83658222477698 111.39462191832291 20.75431430170272 H 0.0 **** 0.06
14440 H 86.82699876450732 112.55484110085389 19.83878218336079 H 0.0 **** 0.06
14441 C 106.00200628504663 65.31779914863162 87.8152865654815 C 0.0 **** -0.24
14442 H 106.58266193735521 66.1228382701272 87.36566408306851 H 0.0 **** 0.06
14443 H 105.07146778935876 65.18851620323713 87.26165358615458 H 0.0 **** 0.06
14444 H 105.77716711331789 65.5682007948428 88.85212395027654 H 0.0 **** 0.06
14445 H 106.57745968058903 64.39226399847365 87.78142640013635 H 0.0 **** 0.06
14446 C 66.71846675023423 58.66889235140627 110.56603449979175 C 0.0 **** -0.24
14447 H 65.90921520180484 59.347549395089885 110.29454048730705 H 0.0 **** 0.06
14448 H 67.17431170495593 58.268015599665034 109.66070826166938 H 0.0 **** 0.06
14449 H 66.32008049824873 57.85003507771867 111.16572324617228 H 0.0 **** 0.06
14450 H 67.46896570730837 59.210043016321094 111.14201683335995 H 0.0 **** 0.06
14451 C 86.53783438926652 96.10390446003757 100.40826923961112 C 0.0 **** -0.24
14452 H 87.58831725082038 95.81539642462826 100.40412374652311 H 0.0 **** 0.06
14453 H 86.05463172195405 95.72874490379763 99.50581097962765 H 0.0 **** 0.06
14454 H 86.46031024143574 97.19088465874759 100.43700003325205 H 0.0 **** 0.06
14455 H 86.0483716745812 95.68141589467848 101.2850308821561 H 0.0 **** 0.06
14456 C 63.465673507155714 96.29982205800368 31.84714574029249 C 0.0 **** -0.24
14457 H 62.85440250150086 96.98254624295993 32.43755648598443 H 0.0 **** 0.06
14458 H 64.44840408506371 96.74199298796299 31.684908750425905 H 0.0 **** 0.06
14459 H 62.98433665193039 96.11961594560603 30.88665060777305 H 0.0 **** 0.06
14460 H 63.57468099856186 95.35592327722944 32.38161638490112 H 0.0 **** 0.06
14461 C 50.624069860633334 16.606640908674933 80.03614599994802 C 0.0 **** -0.24
14462 H 49.62403034075257 17.023829319411732 80.15252535275073 H 0.0 **** 0.06
14463 H 51.009030369209064 16.30916189284494 81.0106150493337 H 0.0 **** 0.06
14464 H 51.281661655726445 17.357674373568557 79.59826683648038 H 0.0 **** 0.06
14465 H 50.58044133564323 15.736360376026255 79.38043051184195 H 0.0 **** 0.06
14466 C 76.51054222528686 77.6255864989555 91.67187642131324 C 0.0 **** -0.24
14467 H 77.02193110710672 76.94875627351396 90.98765523727607 H 0.0 **** 0.06
14468 H 75.8188798221914 78.254619721566 91.11172760164771 H 0.0 **** 0.06
14469 H 77.24373775166475 78.25366424786802 92.17867825306513 H 0.0 **** 0.06
14470 H 75.95767054542551 77.04526460230841 92.41085735207145 H 0.0 **** 0.06
14471 C 26.845263497289395 46.97591239282434 85.39830673772863 C 0.0 **** -0.24
14472 H 26.618508017589107 47.74482141181517 84.6592551128247 H 0.0 **** 0.06
14473 H 27.42393278883874 47.41480250225362 86.21164170148671 H 0.0 **** 0.06
14474 H 27.42265800100676 46.17936273117394 84.92861680280632 H 0.0 **** 0.06
14475 H 25.915765236085704 46.56689093527868 85.79369994829969 H 0.0 **** 0.06
14476 C 73.73275264111464 2.1519949338642164 59.92976159076275 C 0.0 **** -0.24
14477 H 72.947335865946 1.9952245039035574 59.19093152420268 H 0.0 **** 0.06
14478 H 73.7920247544032 1.2831143395693516 60.58658639257766 H 0.0 **** 0.06
14479 H 73.50505228683721 3.038836872459754 60.52060190427818 H 0.0 **** 0.06
14480 H 74.68771894156623 2.2890087043376752 59.42215938636815 H 0.0 **** 0.06
14481 C 3.7414211304412675 30.304917090191452 69.56227350565328 C 0.0 **** -0.24
14482 H 3.274124073748027 29.32820420061489 69.69609018312642 H 0.0 **** 0.06
14483 H 2.9684334230283156 31.06911490346033 69.48529910645146 H 0.0 **** 0.06
14484 H 4.340118150822548 30.298653745085232 68.65148591634951 H 0.0 **** 0.06
14485 H 4.382907889440844 30.52003830013564 70.41700329134082 H 0.0 **** 0.06
14486 C 110.84140190759942 89.4659487250079 9.678086715119008 C 0.0 **** -0.24
14487 H 110.11490536163853 88.703346855116 9.397468564224113 H 0.0 **** 0.06
14488 H 111.7850332344851 89.27499868130161 9.165915403056744 H 0.0 **** 0.06
14489 H 111.00153027208422 89.43479982720794 10.756338126957559 H 0.0 **** 0.06
14490 H 110.46560205985949 90.44817134796352 9.393472027994193 H 0.0 **** 0.06
14491 C 40.095658198706076 73.5849925820354 29.568086786254753 C 0.0 **** -0.24
14492 H 40.3168170111594 74.50084901080086 29.020086634861002 H 0.0 **** 0.06
14493 H 40.489623880609315 72.7291801607071 29.020089048450075 H 0.0 **** 0.06
14494 H 39.01603212354337 73.48082163628641 29.67934945962054 H 0.0 **** 0.06
14495 H 40.558648052264175 73.6308624843895 30.553644861380405 H 0.0 **** 0.06
14496 C 5.834002279090832 28.44735461165382 85.34884284975129 C 0.0 **** -0.24
14497 H 6.0591640692187365 29.511199559563522 85.42981529470254 H 0.0 **** 0.06
14498 H 4.793164318059059 28.27492539594769 85.62515240263934 H 0.0 **** 0.06
14499 H 6.485897215692129 27.886500297900483 86.01832682950186 H 0.0 **** 0.06
14500 H 5.996715954206426 28.11815456588519 84.3219923028141 H 0.0 **** 0.06
14501 C 19.25319320724327 46.60784945396895 17.876748903115526 C 0.0 **** -0.24
14502 H 19.205153071109294 47.421471325690874 18.59998395661688 H 0.0 **** 0.06
14503 H 19.21562146182822 47.01699307886395 16.866485905770787 H 0.0 **** 0.06
14504 H 18.40714497304654 45.93655703506528 18.02921317012425 H 0.0 **** 0.06
14505 H 20.18361067040678 46.05590577224106 18.01179679051171 H 0.0 **** 0.06
14506 C 56.148649091925336 10.705040080119517 39.4945156556226 C 0.0 **** -0.24
14507 H 56.70095552250427 11.476803491008155 40.032329132831165 H 0.0 **** 0.06
14508 H 55.57137700211342 11.163966870089382 38.69168656928971 H 0.0 **** 0.06
14509 H 55.47359098025919 10.196311913626914 40.18371059707021 H 0.0 **** 0.06
14510 H 56.84919804407099 9.984892567577958 39.07340754986435 H 0.0 **** 0.06
14511 C 56.36706880247729 29.256030161413463 76.72179107193108 C 0.0 **** -0.24
14512 H 57.17780768412004 29.98254702237236 76.79008603418436 H 0.0 **** 0.06
14513 H 56.76282008569882 28.30293692009065 76.37132485450638 H 0.0 **** 0.06
14514 H 55.614385176405506 29.616760638899763 76.02133891410165 H 0.0 **** 0.06
14515 H 55.915183830325134 29.12417757497777 77.70452003452692 H 0.0 **** 0.06
14516 C 45.73885627366491 88.83034642419017 77.0126594212609 C 0.0 **** -0.24
14517 H 45.23178941449393 88.84151839944582 76.04725440677078 H 0.0 **** 0.06
14518 H 45.80207490677989 87.80429945812867 77.37717211608575 H 0.0 **** 0.06
14519 H 45.176194652234386 89.43512368034166 77.72452234069513 H 0.0 **** 0.06
14520 H 46.74201665250692 89.23950141884674 76.90031292352032 H 0.0 **** 0.06
14521 C 6.812232237991752 0.8909730266831701 104.73882377887762 C 0.0 **** -0.24
14522 H 6.351251976002917 1.6467669583929734 104.1028787156558 H 0.0 **** 0.06
14523 H 6.178910878741018 0.004243959653692286 104.7666448226129 H 0.0 **** 0.06
14524 H 6.928322745745637 1.2868533751333047 105.74736683257305 H 0.0 **** 0.06
14525 H 7.790652721081287 0.6267037568706684 104.33718025357155 H 0.0 **** 0.06
14526 C 36.186401502669554 34.16823759076601 56.97424217808961 C 0.0 **** -0.24
14527 H 36.4620111003527 33.986398996655055 55.93512885239976 H 0.0 **** 0.06
14528 H 35.20421478678804 34.63944562652898 57.011128911231175 H 0.0 **** 0.06
14529 H 36.92271848788158 34.825330311485516 57.43670928691254 H 0.0 **** 0.06
14530 H 36.15579631761335 33.22048182637781 57.51274545904339 H 0.0 **** 0.06
14531 C 107.56513154530386 57.77663748051072 99.4443052715269 C 0.0 **** -0.24
14532 H 107.24320148121745 58.18336609793044 100.4024849012016 H 0.0 **** 0.06
14533 H 107.9781052107653 56.77845545431914 99.59381731137802 H 0.0 **** 0.06
14534 H 108.32895261435593 58.4241953820218 99.01333827726666 H 0.0 **** 0.06
14535 H 106.71227669903688 57.719627316029936 98.76795562847255 H 0.0 **** 0.06
14536 C 38.29519882312541 29.258059675682915 44.52765294372557 C 0.0 **** -0.24
14537 H 37.41125663760722 28.623840901631453 44.45396983274226 H 0.0 **** 0.06
14538 H 38.57641342897415 29.36763861328828 45.57483925384611 H 0.0 **** 0.06
14539 H 38.07497292922099 30.23795668535695 44.10491454205592 H 0.0 **** 0.06
14540 H 39.116884395742 28.800202959429924 43.97609108055431 H 0.0 **** 0.06
14541 C 69.25745801899623 99.55650077462533 19.125213586414517 C 0.0 **** -0.24
14542 H 68.32998244214656 99.17968541463358 18.692361751165908 H 0.0 **** 0.06
14543 H 69.16864886701919 100.62919170419678 19.293960239465072 H 0.0 **** 0.06
14544 H 70.08259080482634 99.36314835123298 18.43988001436454 H 0.0 **** 0.06
14545 H 69.44620942364557 99.05275259577311 20.072997868586373 H 0.0 **** 0.06
14546 C 37.79365772988626 80.50146682522296 8.686327201075073 C 0.0 **** -0.24
14547 H 37.27291014437308 79.76831745587793 9.303039772846432 H 0.0 **** 0.06
14548 H 38.739899701502324 80.76461159006959 9.157694658659238 H 0.0 **** 0.06
14549 H 37.17631730993428 81.39456837440468 8.58517450594195 H 0.0 **** 0.06
14550 H 37.98375075084805 80.07720863287068 7.700656365961663 H 0.0 **** 0.06
14551 C 54.12454215710011 107.98089983041955 98.56550493404836 C 0.0 **** -0.24
14552 H 53.654095912550474 107.75269970297354 97.60882188681339 H 0.0 **** 0.06
14553 H 55.02996646475043 107.38423752588615 98.67559715348875 H 0.0 **** 0.06
14554 H 53.43434862282675 107.74776027975935 99.37513455193846 H 0.0 **** 0.06
14555 H 54.38117419132897 109.04001101570604 98.59967981257333 H 0.0 **** 0.06
14556 C 81.52211825060684 53.41381195637548 43.93762158487425 C 0.0 **** -0.24
14557 H 82.0091762396261 54.07981961493898 43.225798103448454 H 0.0 **** 0.06
14558 H 81.65623822898993 52.37996550953852 43.618628210739246 H 0.0 **** 0.06
14559 H 80.45795464530835 53.64644845738316 43.982527000669876 H 0.0 **** 0.06
14560 H 81.96603922717082 53.550288986642755 44.924240373230276 H 0.0 **** 0.06
14561 C 98.48850940098222 84.09213631833057 62.03756637491645 C 0.0 **** -0.24
14562 H 97.40523073373157 83.96793395899016 62.05051042865085 H 0.0 **** 0.06
14563 H 98.91052251561473 83.51060190213681 61.21768585614805 H 0.0 **** 0.06
14564 H 98.90509395241688 83.74299700821763 62.98315800315848 H 0.0 **** 0.06
14565 H 98.73167520046235 85.14590111191589 61.900123431725234 H 0.0 **** 0.06
14566 C 59.60033962124164 82.29468817396838 12.903983160644856 C 0.0 **** -0.24
14567 H 60.39743553559594 82.78416057612111 13.463982522804855 H 0.0 **** 0.06
14568 H 58.75687525634823 82.97751341132329 12.803310751727082 H 0.0 **** 0.06
14569 H 59.281518524767215 81.3981862160752 13.436488357108274 H 0.0 **** 0.06
14570 H 59.966990275671584 82.01969161282778 11.915501737086359 H 0.0 **** 0.06
14571 C 13.0238172945661 15.042892153826116 87.36692144602344 C 0.0 **** -0.24
14572 H 14.052173899827892 15.199468168681818 87.69071762295692 H 0.0 **** 0.06
14573 H 12.736054438030607 15.835611336559055 86.67597625675123 H 0.0 **** 0.06
14574 H 12.36319874414798 15.059513169233583 88.23456154493138 H 0.0 **** 0.06
14575 H 12.943517407267365 14.077641046627946 86.86710286823538 H 0.0 **** 0.06
14576 C 28.089262805355872 98.57532616607813 15.6193291910853 C 0.0 **** -0.24
14577 H 28.21206166340852 99.53443606648631 16.122524017463203 H 0.0 **** 0.06
14578 H 27.522601602054607 97.89952727731765 16.260043905222613 H 0.0 **** 0.06
14579 H 29.069750363276455 98.14528520004635 15.41417480603327 H 0.0 **** 0.06
14580 H 27.553809723833183 98.72256518239217 14.681179905218588 H 0.0 **** 0.06
14581 C 47.03310451047378 55.00135276815951 12.301977506856076 C 0.0 **** -0.24
14582 H 47.916638025346344 54.63565585112286 11.779860069333608 H 0.0 **** 0.06
14583 H 46.336624766982766 55.431568188589694 11.581407509085764 H 0.0 **** 0.06
14584 H 47.327808235002465 55.76455909278408 13.023261289123724 H 0.0 **** 0.06
14585 H 46.55185270746955 54.17523275520293 12.82485395549513 H 0.0 **** 0.06
14586 C 23.231607633962767 32.88105036364379 108.56230519337558 C 0.0 **** -0.24
14587 H 24.278742463240746 32.62737757554868 108.39723807128135 H 0.0 **** 0.06
14588 H 23.095436434867054 33.9560537977949 108.44360633075684 H 0.0 **** 0.06
14589 H 22.942225617942256 32.58662987331491 109.57165749887795 H 0.0 **** 0.06
14590 H 22.612075875865344 32.35380086221639 107.83754544274538 H 0.0 **** 0.06
14591 C 25.52762726389622 100.066340702682 77.610016092476 C 0.0 **** -0.24
14592 H 25.63809694719572 100.96077024765091 78.22345773717589 H 0.0 **** 0.06
14593 H 24.500910220149905 99.70558624050852 77.67510636797013 H 0.0 **** 0.06
14594 H 26.208135195218603 99.29413205906431 77.96976071878285 H 0.0 **** 0.06
14595 H 25.765212499007305 100.30581747370266 76.57366407411729 H 0.0 **** 0.06
14596 C 78.21435023783397 86.67664340996171 31.30874468826528 C 0.0 **** -0.24
14597 H 77.3182001179913 86.82144820850652 30.706424299015083 H 0.0 **** 0.06
14598 H 77.94886748058593 86.17311055678988 32.23947670397962 H 0.0 **** 0.06
14599 H 78.66128140310701 87.64499703236842 31.534822576508788 H 0.0 **** 0.06
14600 H 78.92884381758938 86.06674267656976 30.756464528338682 H 0.0 **** 0.06
14601 C 70.69006522405087 9.611502417958334 66.02757027645441 C 0.0 **** -0.24
14602 H 70.31234430645077 9.511573233037723 65.01062810309725 H 0.0 **** 0.06
14603 H 70.00482181718314 10.226599310514132 66.61105094450605 H 0.0 **** 0.06
14604 H 71.67268150219653 10.083541921662487 66.00473629907034 H 0.0 **** 0.06
14605 H 70.7715723728798 8.624732778926898 66.48318375819039 H 0.0 **** 0.06
14606 C 105.61121424570749 40.4083027320591 46.84971651864531 C 0.0 **** -0.24
14607 H 104.67447690261403 40.24862276807983 46.31522715475777 H 0.0 **** 0.06
14608 H 105.67382294255387 41.44944726762009 47.16868937700749 H 0.0 **** 0.06
14609 H 106.44921666903889 40.17822064349204 46.1922999689095 H 0.0 **** 0.06
14610 H 105.64595882419314 39.75760761238027 47.72343618720761 H 0.0 **** 0.06
14611 C 43.016988977499494 60.34957378863953 60.39266647550843 C 0.0 **** -0.24
14612 H 43.34230570742389 59.4680780399552 59.839897375466954 H 0.0 **** 0.06
14613 H 43.61512376913308 61.20883515170999 60.0890069916674 H 0.0 **** 0.06
14614 H 43.146690535581826 60.17599128433787 61.461316586039025 H 0.0 **** 0.06
14615 H 41.96591822613209 60.545002031296974 60.1811612908817 H 0.0 **** 0.06
14616 C 70.7297180040951 93.12156440285301 45.627240236011225 C 0.0 **** -0.24
14617 H 70.95295895416837 92.5611269424401 44.71985461018134 H 0.0 **** 0.06
14618 H 69.97216679124443 93.87630208648676 45.411634841698685 H 0.0 **** 0.06
14619 H 71.6365432150989 93.60867149284053 45.986099714528265 H 0.0 **** 0.06
14620 H 70.35502600633822 92.44052351367438 46.39172740720654 H 0.0 **** 0.06
14621 C 94.59870107189374 61.474711583464305 99.58123584151389 C 0.0 **** -0.24
14622 H 94.56095191650107 60.74752901913238 98.77003616308409 H 0.0 **** 0.06
14623 H 95.62122576931955 61.55220877966902 99.95218446023125 H 0.0 **** 0.06
14624 H 93.94272294682636 61.151714677169075 100.38953843406816 H 0.0 **** 0.06
14625 H 94.27114789266821 62.4467224965721 99.21314881390725 H 0.0 **** 0.06
14626 C 76.29839763937343 0.08233037283969225 81.76271488712285 C 0.0 **** -0.24
14627 H 77.14238880003771 0.7358923262271446 81.9862706060268 H 0.0 **** 0.06
14628 H 75.41449686830794 0.6877229703596015 81.56019906386271 H 0.0 **** 0.06
14629 H 76.1059337568737 -0.5670119469995001 82.61701554780154 H 0.0 **** 0.06
14630 H 76.53145787434156 -0.5257209714815758 80.88882080980682 H 0.0 **** 0.06
14631 C 44.94273166370391 34.76542108872771 30.179806991850995 C 0.0 **** -0.24
14632 H 45.633649515205846 35.34405491771966 29.566758218040256 H 0.0 **** 0.06
14633 H 44.23239263749312 35.43836017710718 30.661163304051705 H 0.0 **** 0.06
14634 H 45.50090028917603 34.22142305987961 30.941577496386437 H 0.0 **** 0.06
14635 H 44.403984212940514 34.05784620020429 29.549728948925413 H 0.0 **** 0.06
14636 C 59.48587255320359 99.27688733374183 82.56233956584543 C 0.0 **** -0.24
14637 H 59.42145306518785 100.34873362362578 82.37545981773923 H 0.0 **** 0.06
14638 H 60.52384268717998 99.00481681276551 82.75848778283029 H 0.0 **** 0.06
14639 H 59.1268393421185 98.73472653990729 81.68843045775981 H 0.0 **** 0.06
14640 H 58.87297792605267 99.02192515986579 83.42640600288036 H 0.0 **** 0.06
14641 C 44.833776954406346 101.783818720965 81.33495001093752 C 0.0 **** -0.24
14642 H 45.369762445546314 102.15621160982943 82.20816619252409 H 0.0 **** 0.06
14643 H 44.56788701210746 100.73854245124818 81.49162621775656 H 0.0 **** 0.06
14644 H 45.470856735127825 101.8691504973653 80.45495614800052 H 0.0 **** 0.06
14645 H 43.928618909446186 102.37143100239311 81.18727125835181 H 0.0 **** 0.06
14646 C 28.504741467076826 52.70554832540927 69.15728901761815 C 0.0 **** -0.24
14647 H 28.069167192753696 53.13458993318022 70.05922842485461 H 0.0 **** 0.06
14648 H 29.441960963314955 53.21453408350959 68.92862639248102 H 0.0 **** 0.06
14649 H 27.81130040472661 52.82996448080155 68.32552672779974 H 0.0 **** 0.06
14650 H 28.695838175667205 51.6443267931914 69.31590895332181 H 0.0 **** 0.06
14651 C 74.0797913492294 108.78013125680697 73.98004915648818 C 0.0 **** -0.24
14652 H 75.02230888371116 108.26487537791871 74.15976102021 H 0.0 **** 0.06
14653 H 73.4221832170984 108.1394875483392 73.39252165013087 H 0.0 **** 0.06
14654 H 74.26920789734817 109.7050386179457 73.43444839959253 H 0.0 **** 0.06
14655 H 73.60479479992941 109.01186384313881 74.9335126817366 H 0.0 **** 0.06
14656 C 4.991504930765203 7.3851723962204545 79.89548197733077 C 0.0 **** -0.24
14657 H 4.389328578429442 6.478743074760644 79.83043633223579 H 0.0 **** 0.06
14658 H 5.376671829119559 7.636051289873251 78.90691500605664 H 0.0 **** 0.06
14659 H 5.825535845490862 7.217798242346049 80.57841083452766 H 0.0 **** 0.06
14660 H 4.376835855175045 8.204459653090098 80.26567867382659 H 0.0 **** 0.06
14661 C 67.13839278438655 73.2969985793269 59.586184163014366 C 0.0 **** -0.24
14662 H 67.25919143782917 73.98343788025932 58.748493212856715 H 0.0 **** 0.06
14663 H 67.80762726671992 72.4455809373994 59.45751922354373 H 0.0 **** 0.06
14664 H 66.10640288278293 72.94584662543213 59.622372891485554 H 0.0 **** 0.06
14665 H 67.3798273529357 73.81191469610076 60.51584813936148 H 0.0 **** 0.06
14666 C 17.163647947122627 87.68302050373836 75.93346167462136 C 0.0 **** -0.24
14667 H 16.215586779517565 87.53367844490572 75.41591514408208 H 0.0 **** 0.06
14668 H 17.837673026685138 86.85795875563903 75.69999052973691 H 0.0 **** 0.06
14669 H 16.988930979789785 87.71764822492065 77.00830502608096 H 0.0 **** 0.06
14670 H 17.610676501224248 88.62165300402589 75.60651845118753 H 0.0 **** 0.06
14671 C 97.12374175231895 9.71133997632154 59.733189876609885 C 0.0 **** -0.24
14672 H 97.4806836252589 9.489749542872886 60.739106167581326 H 0.0 **** 0.06
14673 H 96.07832901068417 10.013313757380374 59.77792588013958 H 0.0 **** 0.06
14674 H 97.21998311625254 8.82141427789145 59.110372648839814 H 0.0 **** 0.06
14675 H 97.71897126481281 10.518808131686683 59.30619054964225 H 0.0 **** 0.06
14676 C 89.6808951311967 64.41658863559559 46.11803514574973 C 0.0 **** -0.24
14677 H 89.39427983301096 63.529614852758925 45.554229778408796 H 0.0 **** 0.06
14678 H 89.9019279940861 65.23080950300766 45.42664137903728 H 0.0 **** 0.06
14679 H 90.566142156924 64.19697767075775 46.7154723040361 H 0.0 **** 0.06
14680 H 88.86260392400283 64.70987988663575 46.77529316507503 H 0.0 **** 0.06
14681 C 52.13120064680922 19.27129552325286 60.88083389517041 C 0.0 **** -0.24
14682 H 51.18979672509579 19.409810134024028 60.348009516897775 H 0.0 **** 0.06
14683 H 52.8569105820942 18.799464748477405 60.21908080820498 H 0.0 **** 0.06
14684 H 51.96606815728023 18.636896715139983 61.75118885403549 H 0.0 **** 0.06
14685 H 52.509526407776434 20.24066268435719 61.205187575471996 H 0.0 **** 0.06
14686 C 93.40171726576631 98.94940885206506 63.541672081863624 C 0.0 **** -0.24
14687 H 93.41080245496155 99.56046574184089 62.63863366925352 H 0.0 **** 0.06
14688 H 93.06928117916979 97.9409094906448 63.294984637604216 H 0.0 **** 0.06
14689 H 92.72078609231033 99.3885671338654 64.27091768037212 H 0.0 **** 0.06
14690 H 94.40643622773399 98.9085917573542 63.96211369530084 H 0.0 **** 0.06
14691 C 94.48033575329382 88.05028616253085 60.061889526425524 C 0.0 **** -0.24
14692 H 94.78244015484415 89.00005916820282 60.50332872240079 H 0.0 **** 0.06
14693 H 93.86780419774942 87.49745095584325 60.7749503822129 H 0.0 **** 0.06
14694 H 95.36651932504023 87.4664650794225 59.814147769488876 H 0.0 **** 0.06
14695 H 93.90376703847934 88.23903927818765 59.156050028170476 H 0.0 **** 0.06
14696 C 111.59461854317053 67.65855125798552 101.8499604709962 C 0.0 **** -0.24
14697 H 111.8138533447886 66.61268462286131 102.06676341950615 H 0.0 **** 0.06
14698 H 111.62448645137984 68.23440654725692 102.77507397584162 H 0.0 **** 0.06
14699 H 110.60218562527443 67.73635899175224 101.40426961886266 H 0.0 **** 0.06
14700 H 112.33718267903461 68.04791798260976 101.15433961221464 H 0.0 **** 0.06
14701 C 18.357163842147244 111.23415339906869 60.077767742210064 C 0.0 **** -0.24
14702 H 17.51143373283027 111.75674325422149 59.63207642226504 H 0.0 **** 0.06
14703 H 18.673083761874835 110.4254929542055 59.41862034961088 H 0.0 **** 0.06
14704 H 18.06190977293231 110.82261819595759 61.04258698008349 H 0.0 **** 0.06
14705 H 19.182228100951235 111.93175919189011 60.21778721688063 H 0.0 **** 0.06
14706 C 54.05228228916127 14.615601310553998 7.202097841276441 C 0.0 **** -0.24
14707 H 54.47594937432258 14.589883203817863 8.206280192400499 H 0.0 **** 0.06
14708 H 54.70890708482756 15.185592322262139 6.545322023995169 H 0.0 **** 0.06
14709 H 53.069913270173416 15.086843118536478 7.233381356089168 H 0.0 **** 0.06
14710 H 53.95464464528262 13.597668496104205 6.823139881785622 H 0.0 **** 0.06
14711 C 74.15387563707444 53.82997723110691 17.802272527171365 C 0.0 **** -0.24
14712 H 74.97550925018982 54.059318125000175 18.480618555809425 H 0.0 **** 0.06
14713 H 74.34460505107617 52.87529213792567 17.31154543169801 H 0.0 **** 0.06
14714 H 74.07434650953596 54.616006948158144 17.05080008223422 H 0.0 **** 0.06
14715 H 73.22319049629075 53.769821492893584 18.36644612157044 H 0.0 **** 0.06
14716 C 34.35079359459439 55.475147893506914 74.84617213206496 C 0.0 **** -0.24
14717 H 33.339710368154044 55.53287070349538 75.24994460186778 H 0.0 **** 0.06
14718 H 34.62203154391494 56.43585354857555 74.40770999346708 H 0.0 **** 0.06
14719 H 34.39129406074545 54.701315441418416 74.07887785986779 H 0.0 **** 0.06
14720 H 35.04841177955359 55.23029854310644 75.646437084078 H 0.0 **** 0.06
14721 C 112.26841481885012 28.51434610131281 107.09818732914711 C 0.0 **** -0.24
14722 H 112.91023284276785 27.783883175401428 107.59061186273001 H 0.0 **** 0.06
14723 H 112.26409812234415 28.32764038825428 106.02337997655161 H 0.0 **** 0.06
14724 H 112.64652276064017 29.518572157011505 107.29091727031508 H 0.0 **** 0.06
14725 H 111.25382492082562 28.42661052321165 107.48713232776235 H 0.0 **** 0.06
14726 C 4.6183910282304765 84.91066456905656 107.87085255150822 C 0.0 **** -0.24
14727 H 5.460417536134614 85.17117414863907 107.22939520905582 H 0.0 **** 0.06
14728 H 3.685329240478225 85.10106860480201 107.34062676267024 H 0.0 **** 0.06
14729 H 4.651530528435174 85.51546198287767 108.77713465904155 H 0.0 **** 0.06
14730 H 4.677715921082751 83.85466073919682 108.13531972658839 H 0.0 **** 0.06
14731 C 70.44190009350572 92.44379238176717 27.81984807283748 C 0.0 **** -0.24
14732 H 70.80369644177185 92.26809914603538 26.806684863780987 H 0.0 **** 0.06
14733 H 70.44426434842174 93.51359833579318 28.024821071258003 H 0.0 **** 0.06
14734 H 71.09323687412913 91.93505172235058 28.53159719772043 H 0.0 **** 0.06
14735 H 69.42772965226521 92.0564335981351 27.91574833651095 H 0.0 **** 0.06
14736 C 84.6150249052977 97.11740419648996 97.47616342434776 C 0.0 **** -0.24
14737 H 84.495573335605 96.04559254716955 97.31790572272487 H 0.0 **** 0.06
14738 H 83.98219824930294 97.66075653530146 96.77515629677234 H 0.0 **** 0.06
14739 H 85.65637966756023 97.39359674635406 97.31594723908123 H 0.0 **** 0.06
14740 H 84.32604661565935 97.36725899387463 98.49711862827166 H 0.0 **** 0.06
14741 C 98.61688872477797 88.38905577103301 57.97594480839507 C 0.0 **** -0.24
14742 H 98.79548109360655 87.67474582635828 57.172053351842635 H 0.0 **** 0.06
14743 H 99.46510774873133 89.0704070287002 58.05090753686608 H 0.0 **** 0.06
14744 H 98.49664788760444 87.85196815372802 58.917630802959195 H 0.0 **** 0.06
14745 H 97.7107845398233 88.95631451078108 57.76307602509053 H 0.0 **** 0.06
14746 C 35.440421684093 109.28009699517816 99.87445614704387 C 0.0 **** -0.24
14747 H 35.89150370192889 110.26744179315884 99.97059990654469 H 0.0 **** 0.06
14748 H 35.31984390917151 109.03739726474524 98.81866581150808 H 0.0 **** 0.06
14749 H 34.46628263516391 109.27669701807665 100.36241401833382 H 0.0 **** 0.06
14750 H 36.08524338338324 108.53886479039954 100.34691376775169 H 0.0 **** 0.06
14751 C 89.0806761092893 66.80859294579369 91.99391689318765 C 0.0 **** -0.24
14752 H 88.50854422230344 67.02472845422119 91.0907253121087 H 0.0 **** 0.06
14753 H 89.83901767337196 66.05781757696184 91.77084105301884 H 0.0 **** 0.06
14754 H 88.41122239987675 66.43038547470513 92.76670227523607 H 0.0 **** 0.06
14755 H 89.56385279824329 67.72066453297015 92.34433392784143 H 0.0 **** 0.06
14756 C 0.7560550043505039 29.92007923728211 50.01631331688742 C 0.0 **** -0.24
14757 H 0.2607235293744452 28.991556887417595 50.3001026085297 H 0.0 **** 0.06
14758 H 1.5859452612144684 30.110870009544016 50.69738855678116 H 0.0 **** 0.06
14759 H 0.04392500706238067 30.743369918176626 50.07062444981477 H 0.0 **** 0.06
14760 H 1.1337223893299537 29.8331099748697 48.99708952640225 H 0.0 **** 0.06
14761 C 72.88387761388418 91.76774423853874 80.84643976164136 C 0.0 **** -0.24
14762 H 72.49125966710511 90.97089032002276 81.47782898523792 H 0.0 **** 0.06
14763 H 73.9714966010967 91.78840580377567 80.92204057012901 H 0.0 **** 0.06
14764 H 72.47812608267742 92.72471266654037 81.17463865623566 H 0.0 **** 0.06
14765 H 72.59462810465732 91.58696816381604 79.81125083496269 H 0.0 **** 0.06
14766 C 23.31911477928884 26.333803719501915 76.09881981638296 C 0.0 **** -0.24
14767 H 23.322924902465985 26.899617450480974 75.16806925843167 H 0.0 **** 0.06
14768 H 23.87960857342412 25.4084489545739 75.96413989147104 H 0.0 **** 0.06
14769 H 22.292364288258568 26.100663947351258 76.37853680252027 H 0.0 **** 0.06
14770 H 23.783504588695195 26.927979450393735 76.88626234331 H 0.0 **** 0.06
14771 C 93.29657132054334 25.117723655846746 43.24973664466074 C 0.0 **** -0.24
14772 H 94.16711976861436 24.98465060697211 42.60753858638117 H 0.0 **** 0.06
14773 H 93.23179051701445 26.16035316142937 43.5614842533609 H 0.0 **** 0.06
14774 H 93.39302742608172 24.480975011636247 44.12908570397059 H 0.0 **** 0.06
14775 H 92.3958556784643 24.84563059301044 42.7013016224077 H 0.0 **** 0.06
14776 C 7.508676746462896 48.355147034683 64.77494081393945 C 0.0 **** -0.24
14777 H 8.444385794962471 48.51161983625366 65.31199039150036 H 0.0 **** 0.06
14778 H 7.2874304833336225 47.28858565220406 64.73347631153734 H 0.0 **** 0.06
14779 H 7.602015872758727 48.74721247741661 63.76262226943089 H 0.0 **** 0.06
14780 H 6.702500377279989 48.874461860753854 65.29383984661752 H 0.0 **** 0.06
14781 C 68.21735096086061 11.893151208308026 106.29984841108708 C 0.0 **** -0.24
14782 H 67.87959455612656 10.861624906479591 106.39928424137997 H 0.0 **** 0.06
14783 H 67.92960850969638 12.455770997006582 107.18857092408018 H 0.0 **** 0.06
14784 H 67.75685390014684 12.341743320042497 105.41983708051293 H 0.0 **** 0.06
14785 H 69.30124408277118 11.912217012875047 106.19184140103297 H 0.0 **** 0.06
14786 C 79.92775088511047 24.85273264235224 65.03004484582519 C 0.0 **** -0.24
14787 H 80.24994406766672 25.72612399152105 64.46402414699949 H 0.0 **** 0.06
14788 H 78.92472911585082 25.023759128597682 65.42169608687348 H 0.0 **** 0.06
14789 H 80.61710160630054 24.68228332999465 65.8582170016102 H 0.0 **** 0.06
14790 H 79.92094974838133 23.979597706706453 64.3777730426826 H 0.0 **** 0.06
14791 C 37.18310909828397 92.63170830318504 11.079079591714944 C 0.0 **** -0.24
14792 H 37.89774511047174 92.27553830719015 11.820903479328315 H 0.0 **** 0.06
14793 H 36.190911922227684 92.68417620698088 11.527264008195242 H 0.0 **** 0.06
14794 H 37.165233375491916 91.94488855206117 10.232774394166626 H 0.0 **** 0.06
14795 H 37.48044407172386 93.62325039017122 10.735973689542774 H 0.0 **** 0.06
14796 C 0.2890015813471791 61.746122819401926 67.47796811559951 C 0.0 **** -0.24
14797 H 0.24656893165557392 62.80886372808684 67.71635775019485 H 0.0 **** 0.06
14798 H 1.0391957637222902 61.26277733445975 68.10481282626722 H 0.0 **** 0.06
14799 H 0.555023846013114 61.61967967619896 66.42841693156635 H 0.0 **** 0.06
14800 H -0.6854325511035597 61.293634464417 67.66288653068199 H 0.0 **** 0.06
14801 C 53.8946767815069 30.23258317802322 71.36600735139032 C 0.0 **** -0.24
14802 H 54.277774014372504 29.423784492301678 71.98911059064051 H 0.0 **** 0.06
14803 H 53.66865713042177 31.096856002672837 71.99138167989702 H 0.0 **** 0.06
14804 H 52.987764142979856 29.902760332893905 70.85980708159502 H 0.0 **** 0.06
14805 H 54.64582421243262 30.50598975082579 70.6252761266131 H 0.0 **** 0.06
14806 C 9.969124533081697 42.98783437792159 87.36646496589228 C 0.0 **** -0.24
14807 H 10.37613341998059 42.15922930325215 87.94608190090989 H 0.0 **** 0.06
14808 H 9.450416246005773 42.597274120346896 86.49062661262269 H 0.0 **** 0.06
14809 H 10.780662549728106 43.641327444276214 87.04727659376582 H 0.0 **** 0.06
14810 H 9.268786931272587 43.55218256778721 87.98287375901617 H 0.0 **** 0.06
14811 C 31.19821803821994 79.23546568166006 86.02148131469383 C 0.0 **** -0.24
14812 H 30.995773977988314 79.6463376347148 87.01028159667018 H 0.0 **** 0.06
14813 H 31.37414883408183 80.05050941212886 85.3189967967696 H 0.0 **** 0.06
14814 H 30.340548033265144 78.6490673437568 85.69095964247592 H 0.0 **** 0.06
14815 H 32.07976451527125 78.59621174943842 86.06667636070543 H 0.0 **** 0.06
14816 C 53.16269158137368 41.69460383750203 6.480146105640927 C 0.0 **** -0.24
14817 H 53.93216555243538 42.424129970210686 6.228482058451618 H 0.0 **** 0.06
14818 H 53.62581881675899 40.72198917118044 6.649693524851656 H 0.0 **** 0.06
14819 H 52.450203629634814 41.62012177088633 5.6582563542912965 H 0.0 **** 0.06
14820 H 52.643828683285676 42.01273596183529 7.3845009278627884 H 0.0 **** 0.06
14821 C 74.17334453765991 62.297165745392725 19.716106558545068 C 0.0 **** -0.24
14822 H 74.1560950338721 62.210152309693974 18.629800664006133 H 0.0 **** 0.06
14823 H 73.43362318753108 63.032491311984664 20.032830461682444 H 0.0 **** 0.06
14824 H 75.16473803660992 62.615812076564644 20.038714457633453 H 0.0 **** 0.06
14825 H 73.93906793551591 61.3295840659983 20.16147116590768 H 0.0 **** 0.06
14826 C 50.42441840650716 93.01173171375723 21.724186592507323 C 0.0 **** -0.24
14827 H 49.645373283269095 92.52177315604507 22.30770836709499 H 0.0 **** 0.06
14828 H 50.03580983199194 93.94118187917056 21.306697410257442 H 0.0 **** 0.06
14829 H 50.7396143998902 92.35349738548729 20.914202964203668 H 0.0 **** 0.06
14830 H 51.27700780753395 93.23050053624453 22.366410739695198 H 0.0 **** 0.06
14831 C 4.018342370874436 26.90214762851751 62.75125732575094 C 0.0 **** -0.24
14832 H 3.7194594422748253 26.25372164568992 63.574413500562855 H 0.0 **** 0.06
14833 H 5.106306161497855 26.91696180765331 62.676720113688646 H 0.0 **** 0.06
14834 H 3.6525672301825836 27.9131164165903 62.935246826517414 H 0.0 **** 0.06
14835 H 3.594502738854146 26.527235163745814 61.820304088433886 H 0.0 **** 0.06
14836 C 61.934021235853855 78.15167840893713 30.039317631068826 C 0.0 **** -0.24
14837 H 61.784458695354665 78.11084205100221 31.11813588070038 H 0.0 **** 0.06
14838 H 61.396455630338615 77.3285896478881 29.566749545363677 H 0.0 **** 0.06
14839 H 62.997444974278984 78.06677388504505 29.816152778241133 H 0.0 **** 0.06
14840 H 61.55577344875369 79.09911372744781 29.656727431877442 H 0.0 **** 0.06
14841 C 105.24999494838957 67.59330512361481 110.86227724898814 C 0.0 **** -0.24
14842 H 105.73439885013411 66.89432700211404 110.17992552434748 H 0.0 **** 0.06
14843 H 105.8710141776653 68.48184280505637 110.973007808565 H 0.0 **** 0.06
14844 H 105.11741053476925 67.11832607012269 111.83440052700507 H 0.0 **** 0.06
14845 H 104.27683457150115 67.87652657073676 110.46151938090748 H 0.0 **** 0.06
14846 C 58.78355148063622 34.98467477707095 10.127450311044814 C 0.0 **** -0.24
14847 H 57.85769150574649 34.430364424170676 10.277432527018242 H 0.0 **** 0.06
14848 H 58.84455434458809 35.317079710308064 9.090708272586104 H 0.0 **** 0.06
14849 H 59.63326551601472 34.34080743980921 10.35383335865227 H 0.0 **** 0.06
14850 H 58.799351012515444 35.85089397094475 10.788435210806664 H 0.0 **** 0.06
14851 C 111.76857611713504 31.38757583343292 10.538497214295091 C 0.0 **** -0.24
14852 H 112.66751579649929 31.96379007391036 10.320880680235557 H 0.0 **** 0.06
14853 H 112.0321178051405 30.517823704693313 11.14103389561754 H 0.0 **** 0.06
14854 H 111.31289921493371 31.058149184158168 9.604014411851354 H 0.0 **** 0.06
14855 H 111.06258407695299 32.01087845967703 11.086952722188851 H 0.0 **** 0.06
14856 C 97.2240502494422 82.02028998979912 54.03781803474442 C 0.0 **** -0.24
14857 H 96.16443734000529 82.26842535924183 54.102174327408875 H 0.0 **** 0.06
14858 H 97.49104831305559 81.35296745103821 54.85651760323208 H 0.0 **** 0.06
14859 H 97.8142194072224 82.93398259588699 54.10503820252666 H 0.0 **** 0.06
14860 H 97.4243665733355 81.52810839523463 53.085525484088464 H 0.0 **** 0.06
14861 C 27.93113979968362 84.718773204027 1.5479595719784385 C 0.0 **** -0.24
14862 H 28.468298106705674 84.285535135913 0.7038469275083514 H 0.0 **** 0.06
14863 H 26.90841497658576 84.94909317139292 1.2479260882510061 H 0.0 **** 0.06
14864 H 28.431241692949726 85.6334096726955 1.8661837168185968 H 0.0 **** 0.06
14865 H 27.916847246421298 84.00686372463758 2.3729304666593407 H 0.0 **** 0.06
14866 C 88.69138512092752 3.844710591044219 73.04894264537938 C 0.0 **** -0.24
14867 H 89.20613089553905 3.9910519714964323 72.09911665979882 H 0.0 **** 0.06
14868 H 89.42736222330797 3.720959766187832 73.84463538841635 H 0.0 **** 0.06
14869 H 88.06655721345291 2.9537879547743557 72.98977925761099 H 0.0 **** 0.06
14870 H 88.06803900137976 4.712075163802126 73.26148578643765 H 0.0 **** 0.06
14871 C 14.091745692011045 35.95491671344769 40.00694015091591 C 0.0 **** -0.24
14872 H 13.829216784360568 34.92121560727054 39.7803236779493 H 0.0 **** 0.06
14873 H 13.650480762886446 36.61384740812912 39.25853849199467 H 0.0 **** 0.06
14874 H 15.176512132586168 36.06528835093383 39.99492706759162 H 0.0 **** 0.06
14875 H 13.710762455541612 36.21766756961506 40.99343805205257 H 0.0 **** 0.06
14876 C 105.2862588275081 3.6699629771977698 14.173344799948957 C 0.0 **** -0.24
14877 H 105.82789702645277 4.330519903784364 14.850094365819686 H 0.0 **** 0.06
14878 H 105.01410213033787 2.754271959049788 14.699140514307544 H 0.0 **** 0.06
14879 H 105.9197270788934 3.425025902215964 13.320470702732795 H 0.0 **** 0.06
14880 H 104.3831341882925 4.170264955194227 13.822716434788024 H 0.0 **** 0.06
14881 C 66.22744920913911 60.31495919008277 63.63888614690825 C 0.0 **** -0.24
14882 H 66.23398455885447 60.272941793305016 62.55019741377521 H 0.0 **** 0.06
14883 H 65.21177947090823 60.50175417152841 63.98885765423768 H 0.0 **** 0.06
14884 H 66.88201222518228 61.11950605880035 63.974784957038935 H 0.0 **** 0.06
14885 H 66.5820205816114 59.36563473669731 64.04170456258112 H 0.0 **** 0.06
14886 C 4.249375390798946 96.34238854687885 105.15943841959432 C 0.0 **** -0.24
14887 H 3.65378219395231 95.76068551376551 105.86294087905372 H 0.0 **** 0.06
14888 H 4.5791215903230125 95.69852405619108 104.34414807561399 H 0.0 **** 0.06
14889 H 5.118353097624663 96.75422146742625 105.67264089470535 H 0.0 **** 0.06
14890 H 3.6445269881514832 97.15629973670542 104.75815990845064 H 0.0 **** 0.06
14891 C 9.683215312971896 68.08150349960104 51.81264166977812 C 0.0 **** -0.24
14892 H 9.330053664023907 68.85665907836199 52.492949751077816 H 0.0 **** 0.06
14893 H 8.875419143566958 67.37727637143064 51.614657160985786 H 0.0 **** 0.06
14894 H 10.522898387274552 67.5550329782451 52.265659857469586 H 0.0 **** 0.06
14895 H 10.003854233470264 68.53908368975178 50.8766350175579 H 0.0 **** 0.06
14896 C 54.780786779431104 47.82429340000292 68.52412046389415 C 0.0 **** -0.24
14897 H 54.55548693586052 48.2817338614743 69.48710205844995 H 0.0 **** 0.06
14898 H 54.571771039609715 46.755005631356255 68.57230293791696 H 0.0 **** 0.06
14899 H 55.833243184737825 47.978688120738276 68.28687342592775 H 0.0 **** 0.06
14900 H 54.16329274449526 48.28142534461836 67.75089546807038 H 0.0 **** 0.06
14901 C 41.33904993292015 46.652606615141735 82.59160660581816 C 0.0 **** -0.24
14902 H 41.95830469444289 46.02279685440436 83.23100604625526 H 0.0 **** 0.06
14903 H 40.98233377413632 47.50997302928681 83.16212548138321 H 0.0 **** 0.06
14904 H 40.487848997199535 46.07693475482438 82.22932603206516 H 0.0 **** 0.06
14905 H 41.92993641536759 47.00053985831482 81.74411145379281 H 0.0 **** 0.06
14906 C 5.144998542576303 15.232967605742985 23.950743529938023 C 0.0 **** -0.24
14907 H 4.6473681780433935 16.05531201557085 24.465589263951998 H 0.0 **** 0.06
14908 H 6.197953488699653 15.213968890064194 24.23271045538904 H 0.0 **** 0.06
14909 H 5.058860174003399 15.374154254739068 22.873637282728055 H 0.0 **** 0.06
14910 H 4.67546719035937 14.290547055719486 24.23336558842192 H 0.0 **** 0.06
14911 C 14.442446385742713 71.65067939124413 2.8483879234292147 C 0.0 **** -0.24
14912 H 14.456606397645501 72.6959987687886 3.1571828244780704 H 0.0 **** 0.06
14913 H 13.600872036976881 71.14339602547889 3.3218134017341754 H 0.0 **** 0.06
14914 H 15.373126411165828 71.17041307340449 3.150701254719962 H 0.0 **** 0.06
14915 H 14.338220772992884 71.59348173427941 1.7647210649614067 H 0.0 **** 0.06
14916 C 32.12273688503626 111.04172466559805 70.31347586083336 C 0.0 **** -0.24
14917 H 31.930838177301084 111.23674432344474 71.36928204228138 H 0.0 **** 0.06
14918 H 32.66340027473436 110.10101413770113 70.21094209867925 H 0.0 **** 0.06
14919 H 32.72074667626987 111.85284749632756 69.8978541064925 H 0.0 **** 0.06
14920 H 31.174739790040988 110.97649759398855 69.77873445414338 H 0.0 **** 0.06
14921 C 23.313283599309102 15.525020903653758 17.666247602364876 C 0.0 **** -0.24
14922 H 22.418544277196474 14.910988919433908 17.768422225447296 H 0.0 **** 0.06
14923 H 23.763582810502044 15.676810868893586 18.64651886040832 H 0.0 **** 0.06
14924 H 23.044026160333033 16.48935153294871 17.235722062270156 H 0.0 **** 0.06
14925 H 24.025316356081476 15.021452099805188 17.012317783423327 H 0.0 **** 0.06
14926 C 48.40074882133882 29.334392667109626 88.06183721769895 C 0.0 **** -0.24
14927 H 48.877629149046356 30.063500093774223 88.71567268093943 H 0.0 **** 0.06
14928 H 47.55003480282369 28.88698639441418 88.57588943049458 H 0.0 **** 0.06
14929 H 49.1185660236938 28.55688809535701 87.80079606364487 H 0.0 **** 0.06
14930 H 48.05753904048089 29.830739953137595 87.15393919127109 H 0.0 **** 0.06
14931 C 16.96391313337969 102.06321620621856 9.43291373683742 C 0.0 **** -0.24
14932 H 16.666916174724918 101.01423571419559 9.432526466478137 H 0.0 **** 0.06
14933 H 18.04837166612299 102.13337228606343 9.523805260491457 H 0.0 **** 0.06
14934 H 16.49434440780243 102.57338140733307 10.273675322063724 H 0.0 **** 0.06
14935 H 16.646579640897244 102.53094134495413 8.500745267070599 H 0.0 **** 0.06
14936 C 66.056319257175 85.65788437002783 67.64039997430154 C 0.0 **** -0.24
14937 H 65.05798713060912 85.24308644742803 67.77739998753356 H 0.0 **** 0.06
14938 H 66.60793551361971 85.04865750527594 66.92403306278646 H 0.0 **** 0.06
14939 H 66.5821805331689 85.66077353513492 68.59634301088772 H 0.0 **** 0.06
14940 H 65.97865450811938 86.67812703657026 67.26647163749038 H 0.0 **** 0.06
14941 C 0.36596341117909503 79.66783188325621 86.44893391394055 C 0.0 **** -0.24
14942 H -0.64317754528264 79.36541206343475 86.16768985849552 H 0.0 **** 0.06
14943 H 0.32714713738128864 80.25169120440631 87.368259726062 H 0.0 **** 0.06
14944 H 0.7998901230735527 80.2716227933156 85.65225549441848 H 0.0 **** 0.06
14945 H 0.9793536695212168 78.78024237476825 86.607372247011 H 0.0 **** 0.06
14946 C 106.03732926581716 107.98373314214369 38.181556611385474 C 0.0 **** -0.24
14947 H 105.68253371055943 108.06536123341417 37.15370330923673 H 0.0 **** 0.06
14948 H 107.12631094772078 108.04211609172324 38.19579726515977 H 0.0 **** 0.06
14949 H 105.7189241957621 107.02870313027725 38.60023586163834 H 0.0 **** 0.06
14950 H 105.62171049950192 108.79745939862164 38.77534864139824 H 0.0 **** 0.06
14951 C 33.07368420001225 11.822836502119571 70.95526046806515 C 0.0 **** -0.24
14952 H 33.776730730504795 12.433989010184433 70.38941369577014 H 0.0 **** 0.06
14953 H 33.55081943926854 11.47517616366116 71.87167503351881 H 0.0 **** 0.06
14954 H 32.7715767993121 10.965246463599499 70.3539927718781 H 0.0 **** 0.06
14955 H 32.19498346142322 12.417977561587747 71.20523958810722 H 0.0 **** 0.06
14956 C 19.158746228703677 4.079535122530995 17.076464446627284 C 0.0 **** -0.24
14957 H 18.378388332848914 3.750021560199823 16.390424534382987 H 0.0 **** 0.06
14958 H 19.022455929636322 3.590305110357315 18.04202566162965 H 0.0 **** 0.06
14959 H 19.096633491640574 5.160200519668949 17.203923019848474 H 0.0 **** 0.06
14960 H 20.13486949617223 3.816678921446286 16.670566316144146 H 0.0 **** 0.06
14961 C 77.51147633017541 65.14669259737249 46.51857158014074 C 0.0 **** -0.24
14962 H 77.69575624225169 64.11773338589992 46.21145403844557 H 0.0 **** 0.06
14963 H 77.30113986869736 65.17499908476796 47.58716394352084 H 0.0 **** 0.06
14964 H 76.65623383812644 65.54153154252558 45.96895539464481 H 0.0 **** 0.06
14965 H 78.39197033520105 65.75313149250272 46.3038913031886 H 0.0 **** 0.06
14966 C 91.93708203495603 35.81305179072257 73.30981846576725 C 0.0 **** -0.24
14967 H 91.24102001032429 36.33507391612466 72.65342534081645 H 0.0 **** 0.06
14968 H 91.39510578394868 35.07442401839194 73.90088883329719 H 0.0 **** 0.06
14969 H 92.4167527085219 36.530971954190164 73.97497338261581 H 0.0 **** 0.06
14970 H 92.69581273652616 35.31250146276787 72.70885304202375 H 0.0 **** 0.06
14971 C 32.58729769819095 57.44945390374266 33.926847427098316 C 0.0 **** -0.24
14972 H 33.26981102669956 58.25230379065828 34.20530747008608 H 0.0 **** 0.06
14973 H 33.129318186813265 56.6899131204816 33.36314183192814 H 0.0 **** 0.06
14974 H 31.782531122200652 57.853203831343244 33.31293121713463 H 0.0 **** 0.06
14975 H 32.167452137728134 57.00196550184403 34.8284195517226 H 0.0 **** 0.06
14976 C 59.09250916245276 19.204036058003283 19.358629591309636 C 0.0 **** -0.24
14977 H 59.96791113561318 19.155413694086434 18.71072090782212 H 0.0 **** 0.06
14978 H 59.402620010063515 19.470926641911745 20.369093389304055 H 0.0 **** 0.06
14979 H 58.59835948150101 18.23214479686615 19.37487493246698 H 0.0 **** 0.06
14980 H 58.40100970634802 19.956670555095627 18.97976390337962 H 0.0 **** 0.06
14981 C 60.58929676504976 8.749361128594957 90.67318135961213 C 0.0 **** -0.24
14982 H 60.58836717545115 7.879470097509158 90.01568141930989 H 0.0 **** 0.06
14983 H 61.34253341428538 9.460674213197 90.33257351160302 H 0.0 **** 0.06
14984 H 60.818869021270466 8.435695660077894 91.69089834923844 H 0.0 **** 0.06
14985 H 59.607157250530484 9.222200077328779 90.65121038426668 H 0.0 **** 0.06
14986 C 79.63370463176494 21.090458373608868 82.92123631340286 C 0.0 **** -0.24
14987 H 80.2761800226738 21.528220118418403 83.68610394377899 H 0.0 **** 0.06
14988 H 80.248769386618 20.698869141698054 82.11177257668808 H 0.0 **** 0.06
14989 H 78.96221658039258 21.855588566857364 82.53043325872628 H 0.0 **** 0.06
14990 H 79.04846677697572 20.28120014807709 83.35890652706439 H 0.0 **** 0.06
14991 C 69.40237270380223 105.51849741322499 8.077600276773524 C 0.0 **** -0.24
14992 H 69.83681494170278 106.39845738077865 7.603138695902516 H 0.0 **** 0.06
14993 H 70.12670459208658 105.08199725255707 8.765357007379578 H 0.0 **** 0.06
14994 H 69.1391303604141 104.78703651332285 7.313855696509563 H 0.0 **** 0.06
14995 H 68.5064684249808 105.80817207641371 8.628295836861469 H 0.0 **** 0.06
14996 C 103.83186334008863 75.53198174363888 77.15186103184334 C 0.0 **** -0.24
14997 H 103.57923817541322 76.49527246355638 77.59354059055147 H 0.0 **** 0.06
14998 H 104.00891990434593 75.65775825039384 76.08302768817421 H 0.0 **** 0.06
14999 H 103.00799596154607 74.8345601863449 77.30435077245656 H 0.0 **** 0.06
15000 H 104.73152088471383 75.1394397262851 77.62614098546251 H 0.0 **** 0.06
15001 C 22.572187819244782 87.86710706207344 52.875098675540116 C 0.0 **** -0.24
15002 H 21.816998296514324 88.58406743817147 52.55094737112705 H 0.0 **** 0.06
15003 H 23.13874257292474 87.52134282710188 52.01087870613902 H 0.0 **** 0.06
15004 H 22.083526820652303 87.01777047232952 53.353928761656476 H 0.0 **** 0.06
15005 H 23.246501883764473 88.34520566384393 53.58496880979812 H 0.0 **** 0.06
15006 C 23.705577667285638 11.54338007238411 48.10500579832835 C 0.0 **** -0.24
15007 H 23.265985378436625 12.443162131354853 48.53493164307566 H 0.0 **** 0.06
15008 H 24.716022724781197 11.410538250456739 48.49476388366248 H 0.0 **** 0.06
15009 H 23.74565132297718 11.641308325809774 47.01996175660439 H 0.0 **** 0.06
15010 H 23.097468074680194 10.678550776083938 48.37011218453361 H 0.0 **** 0.06
15011 C 9.654287036043554 11.486987997565535 94.5669027562484 C 0.0 **** -0.24
15012 H 10.510125540610609 11.017183391206913 95.05185377426841 H 0.0 **** 0.06
15013 H 9.406524804742268 10.938884067888296 93.65813528117525 H 0.0 **** 0.06
15014 H 9.901232928402596 12.517467653931362 94.31423159649688 H 0.0 **** 0.06
15015 H 8.800663983601764 11.473190003630378 95.24463035171266 H 0.0 **** 0.06
15016 C 22.71845351085949 23.845846970937544 20.13595354665658 C 0.0 **** -0.24
15017 H 22.468817664765908 24.789846468007454 20.61925802946884 H 0.0 **** 0.06
15018 H 22.249287605772224 23.805950886216067 19.152368214843733 H 0.0 **** 0.06
15019 H 22.355616283181803 23.017938613877305 20.745613555182643 H 0.0 **** 0.06
15020 H 23.800346475648354 23.76847996003434 20.025824637418822 H 0.0 **** 0.06
15021 C 62.3034646157378 99.92023493174284 31.640000912164453 C 0.0 **** -0.24
15022 H 62.99575517880911 99.81825936598938 32.47577489749915 H 0.0 **** 0.06
15023 H 62.67423443292116 100.68004736851748 30.951804566539636 H 0.0 **** 0.06
15024 H 61.324097753715556 100.21696331142587 32.01485713329191 H 0.0 **** 0.06
15025 H 62.220133203424815 98.96685427613568 31.11968033173929 H 0.0 **** 0.06
15026 C 112.0721408672176 95.10304050118316 111.86602030018919 C 0.0 **** -0.24
15027 H 112.89931372422737 95.77240123068256 111.62959130186726 H 0.0 **** 0.06
15028 H 111.98744198323847 94.99895454864173 112.9484119515865 H 0.0 **** 0.06
15029 H 112.25706142940076 94.12615088541867 111.42021271183695 H 0.0 **** 0.06
15030 H 111.14609717282326 95.51618410674993 111.4672211269131 H 0.0 **** 0.06
15031 C 44.841678323988134 80.62753599199769 37.2003822447092 C 0.0 **** -0.24
15032 H 45.362882507668104 79.9361096536644 36.53918020314353 H 0.0 **** 0.06
15033 H 44.69446633975852 80.1574931354325 38.173682217862336 H 0.0 **** 0.06
15034 H 43.873646895804626 80.88244540103571 36.769481193027616 H 0.0 **** 0.06
15035 H 45.43684107742817 81.53281460724924 37.32063332119856 H 0.0 **** 0.06
15036 C 79.38352952369465 93.1870451367966 34.63699376140522 C 0.0 **** -0.24
15037 H 80.37213105072402 92.730121204959 34.660781367245704 H 0.0 **** 0.06
15038 H 79.43481481777474 94.13446304273998 34.09897367792951 H 0.0 **** 0.06
15039 H 79.03986503670873 93.36533109539602 35.65575291238491 H 0.0 **** 0.06
15040 H 78.68742432861575 92.51831688097849 34.13002087705473 H 0.0 **** 0.06
15041 C 70.47210004682461 50.15219273371957 36.97076141635236 C 0.0 **** -0.24
15042 H 70.28188496290633 49.18837061769523 37.44313261539219 H 0.0 **** 0.06
15043 H 71.53751850228477 50.250957562268695 36.76435798269799 H 0.0 **** 0.06
15044 H 70.15549771053912 50.95294404066021 37.63994880413256 H 0.0 **** 0.06
15045 H 69.91210620921873 50.21600435731801 36.0372843562873 H 0.0 **** 0.06
15046 C 12.563564370784718 94.8393697694471 79.58503486415705 C 0.0 **** -0.24
15047 H 13.126412926210463 94.31765129702944 80.35921878474704 H 0.0 **** 0.06
15048 H 12.43203707579167 95.88298363129672 79.87297954287826 H 0.0 **** 0.06
15049 H 11.587249608991755 94.3702363871129 79.46598988071173 H 0.0 **** 0.06
15050 H 13.108462650940027 94.78817360458868 78.64268557871716 H 0.0 **** 0.06
15051 C 85.98562297610624 75.50880819578055 110.88467184916033 C 0.0 **** -0.24
15052 H 84.9561054325433 75.80684948229748 110.68535444112655 H 0.0 **** 0.06
15053 H 86.63619217276207 76.38090276094442 110.81396669811812 H 0.0 **** 0.06
15054 H 86.2964566694618 74.76394198999895 110.1517194823436 H 0.0 **** 0.06
15055 H 86.05342329939577 75.08427843926822 111.88648321429912 H 0.0 **** 0.06
15056 C 77.69780632503816 50.676759781406844 86.95501242019151 C 0.0 **** -0.24
15057 H 76.72266890639645 50.88346375151343 86.5129423729201 H 0.0 **** 0.06
15058 H 77.83560516361746 51.30060969651515 87.83865047038145 H 0.0 **** 0.06
15059 H 78.47997909710489 50.896722352001746 86.22793907299564 H 0.0 **** 0.06
15060 H 77.75163580928816 49.62581331797972 87.24034616684997 H 0.0 **** 0.06
15061 C 41.546949105955775 40.20245845120489 106.7211667636816 C 0.0 **** -0.24
15062 H 42.37027893694719 39.92983139241241 107.38114770824896 H 0.0 **** 0.06
15063 H 41.37250613874329 39.39817329107092 106.00618813141716 H 0.0 **** 0.06
15064 H 41.7987157304793 41.1173414313223 106.18524133843383 H 0.0 **** 0.06
15065 H 40.64545422534107 40.364591598256624 107.31262027155233 H 0.0 **** 0.06
15066 C 15.522923823503262 56.71359527344385 55.85869325011213 C 0.0 **** -0.24
15067 H 16.125497536501385 57.41352369061067 55.279527868396045 H 0.0 **** 0.06
15068 H 14.965542858572533 56.068028736264246 55.18040152668758 H 0.0 **** 0.06
15069 H 14.825674597486369 57.2689045202805 56.48689911390514 H 0.0 **** 0.06
15070 H 16.174967711910043 56.10680774806302 56.48711672655665 H 0.0 **** 0.06
15071 C 95.82196746250577 65.12476916202482 97.18253896403641 C 0.0 **** -0.24
15072 H 96.61742033736499 65.86712954472407 97.24280620443065 H 0.0 **** 0.06
15073 H 94.92419439251807 65.58623084059906 96.77068698823379 H 0.0 **** 0.06
15074 H 95.60762942464072 64.7399143959488 98.18049863787428 H 0.0 **** 0.06
15075 H 96.13853226349198 64.30398766867236 96.53780728330324 H 0.0 **** 0.06
15076 C 72.55609871754348 53.89378507809642 36.18496818968245 C 0.0 **** -0.24
15077 H 73.54885164565604 53.562140568261576 36.4908390599814 H 0.0 **** 0.06
15078 H 71.81670734616506 53.15241177438788 36.486579477358845 H 0.0 **** 0.06
15079 H 72.53136750217604 54.01282448010381 35.101819367373196 H 0.0 **** 0.06
15080 H 72.33031751855813 54.848690514997934 36.66048148460817 H 0.0 **** 0.06
15081 C 93.89079093110422 73.15626596991791 76.26538144578936 C 0.0 **** -0.24
15082 H 93.65162775813465 72.16428652067248 76.64966673533593 H 0.0 **** 0.06
15083 H 93.11930745392743 73.86083341281108 76.57620673257892 H 0.0 **** 0.06
15084 H 93.9357037814126 73.1233524735265 75.17715220326923 H 0.0 **** 0.06
15085 H 94.85501512827918 73.47497250927421 76.65954911039677 H 0.0 **** 0.06
15086 C 72.45228543759941 68.93380972833387 34.46385025209288 C 0.0 **** -0.24
15087 H 71.39781479029764 68.75367394987023 34.672167618619994 H 0.0 **** 0.06
15088 H 72.63546477546066 68.82282604294 33.394192151864246 H 0.0 **** 0.06
15089 H 73.05924430593419 68.21510224331641 35.013952825827 H 0.0 **** 0.06
15090 H 72.7161227538536 69.9446667395234 34.774255383575316 H 0.0 **** 0.06
15091 C 110.87412578278412 26.72822601045479 54.95957345102381 C 0.0 **** -0.24
15092 H 111.31338178212667 27.724423883434156 55.02154454642644 H 0.0 **** 0.06
15093 H 110.60733287494408 26.38659015398781 55.95947287213704 H 0.0 **** 0.06
15094 H 111.59748332163296 26.0401850702371 54.52050397988344 H 0.0 **** 0.06
15095 H 109.98110353990076 26.76273599248185 54.336446128422985 H 0.0 **** 0.06
15096 C 17.51326916779601 27.786049308145778 57.67338139603458 C 0.0 **** -0.24
15097 H 17.953701112412432 27.97608467953023 58.65190355773992 H 0.0 **** 0.06
15098 H 18.01958221388685 28.394134810536116 56.92341103813765 H 0.0 **** 0.06
15099 H 16.45431659606055 28.043077712975787 57.69508920601819 H 0.0 **** 0.06
15100 H 17.626272605143527 26.731342423277454 57.42270831250389 H 0.0 **** 0.06
15101 C 81.62244292437714 96.99754190418787 85.36170224839015 C 0.0 **** -0.24
15102 H 81.86818853752862 97.88476019775325 84.77855376394427 H 0.0 **** 0.06
15103 H 82.46646523295198 96.73801877791786 86.00109610562345 H 0.0 **** 0.06
15104 H 81.40610414532449 96.16769158790862 84.68923860630176 H 0.0 **** 0.06
15105 H 80.74798117443743 97.2010401133239 85.98039648662765 H 0.0 **** 0.06
15106 C 31.909250034697912 13.003102600662487 97.14439461483977 C 0.0 **** -0.24
15107 H 31.52015886611226 12.548286266905734 96.23387964596554 H 0.0 **** 0.06
15108 H 32.90167303050451 12.601536614196618 97.3547131244909 H 0.0 **** 0.06
15109 H 31.24186018194385 12.778725103528643 97.97624309358434 H 0.0 **** 0.06
15110 H 31.974983764688517 14.082772176627884 97.01174076105144 H 0.0 **** 0.06
15111 C 98.34875675491887 83.6216110272834 32.169333946636016 C 0.0 **** -0.24
15112 H 98.69294693802996 83.2197051344252 31.216149186694224 H 0.0 **** 0.06
15113 H 97.91975886896131 82.81879933808989 32.76808809958618 H 0.0 **** 0.06
15114 H 97.59242995646449 84.38579980909978 31.989551626438356 H 0.0 **** 0.06
15115 H 99.1917094288581 84.06321249795693 32.70230430924721 H 0.0 **** 0.06
15116 C 63.956796278806 22.89615999324921 56.42869623483594 C 0.0 **** -0.24
15117 H 63.140859864877605 23.432445014071916 56.91307473086769 H 0.0 **** 0.06
15118 H 63.559866224669086 22.286431077377994 55.61753994575872 H 0.0 **** 0.06
15119 H 64.45229155483841 22.25415719284 57.15769162780424 H 0.0 **** 0.06
15120 H 64.67523915853036 23.612056229627505 56.02838904902251 H 0.0 **** 0.06
15121 C 68.2533388348287 46.484301918027086 38.22189881296012 C 0.0 **** -0.24
15122 H 67.18519263721296 46.30028351612509 38.10893737185549 H 0.0 **** 0.06
15123 H 68.44250080194271 47.557623097780606 38.19561560440022 H 0.0 **** 0.06
15124 H 68.79317945772985 46.00030419827186 37.407339569911386 H 0.0 **** 0.06
15125 H 68.59329270981868 46.07743205453181 39.174326066853794 H 0.0 **** 0.06
15126 C 96.33311154584524 54.283644692077644 101.78889621711357 C 0.0 **** -0.24
15127 H 95.32127877628838 54.683128199197256 101.72741686339117 H 0.0 **** 0.06
15128 H 96.64357714447604 53.92956963709412 100.80458198846858 H 0.0 **** 0.06
15129 H 96.35411112412655 53.454878708780484 102.49591481617259 H 0.0 **** 0.06
15130 H 97.0133516256831 55.06643371794581 102.12456296789321 H 0.0 **** 0.06
15131 C 15.469560304234221 102.49961272237368 13.563937065086193 C 0.0 **** -0.24
15132 H 16.07373702178114 102.65420955292865 14.458138791602224 H 0.0 **** 0.06
15133 H 15.926327976081438 103.02348349234327 12.723362150260186 H 0.0 **** 0.06
15134 H 14.46527504113709 102.8893656580507 13.732083391208207 H 0.0 **** 0.06
15135 H 15.414789700547544 101.4339272602852 13.342250233873742 H 0.0 **** 0.06
15136 C 76.62112100501054 41.64944771027824 44.94181442337868 C 0.0 **** -0.24
15137 H 77.21117952878251 42.39310523534114 45.47773403565725 H 0.0 **** 0.06
15138 H 76.89452406563115 41.66154451142319 43.88609244309005 H 0.0 **** 0.06
15139 H 75.56112557562474 41.883415078113245 45.04572981406367 H 0.0 **** 0.06
15140 H 76.81804033774748 40.661283537100815 45.357048945247016 H 0.0 **** 0.06
15141 C 106.97814779849472 58.89340577468323 36.816112713665035 C 0.0 **** -0.24
15142 H 107.57537263744973 59.100806557679164 37.70429390154919 H 0.0 **** 0.06
15143 H 106.30347241562643 58.06108117316438 37.01920219446413 H 0.0 **** 0.06
15144 H 107.63712412532126 58.63343946396088 35.98789288209602 H 0.0 **** 0.06
15145 H 106.3970236672152 59.77715508246183 36.55465480757263 H 0.0 **** 0.06
15146 C 20.546367009582923 17.97956967077141 19.109675997462165 C 0.0 **** -0.24
15147 H 20.90107834779647 17.692319160148628 20.10018519799458 H 0.0 **** 0.06
15148 H 21.197279034482733 18.753675624736843 18.702011975146387 H 0.0 **** 0.06
15149 H 19.528857529571496 18.36235862917235 19.185533976819077 H 0.0 **** 0.06
15150 H 20.559318492301088 17.109821395901804 18.45394853699659 H 0.0 **** 0.06
15151 C 98.38778033682993 49.94376534964616 39.90159167669185 C 0.0 **** -0.24
15152 H 97.37879001907697 50.19085904026374 39.573712808163975 H 0.0 **** 0.06
15153 H 98.90157365669239 49.39493965116086 39.111566843782384 H 0.0 **** 0.06
15154 H 98.33719688016447 49.32751679274631 40.79962311168907 H 0.0 **** 0.06
15155 H 98.93356079138573 50.861745914414 40.121463943132454 H 0.0 **** 0.06
15156 C 77.53954411252593 71.48334533441593 6.469920812368564 C 0.0 **** -0.24
15157 H 78.4979389969252 71.1096050012033 6.110786093515362 H 0.0 **** 0.06
15158 H 77.12173831663992 70.7800339614517 7.191406025456482 H 0.0 **** 0.06
15159 H 76.85418249616427 71.59250462490061 5.630030322925645 H 0.0 **** 0.06
15160 H 77.68464416320916 72.45217557083552 6.949196736138184 H 0.0 **** 0.06
15161 C 93.39234912778107 96.96557532533936 89.53493130199391 C 0.0 **** -0.24
15162 H 92.76394408673892 96.25851188528998 88.99437906130444 H 0.0 **** 0.06
15163 H 94.35765087038243 96.50488146819103 89.74641450076422 H 0.0 **** 0.06
15164 H 92.90742352870313 97.24085634068729 90.4718250791532 H 0.0 **** 0.06
15165 H 93.54085912941372 97.85884733206157 88.92673857560908 H 0.0 **** 0.06
15166 C 95.1736882429511 16.827859550219728 31.100311182975474 C 0.0 **** -0.24
15167 H 94.12004339760597 16.700502881067735 31.347475446057217 H 0.0 **** 0.06
15168 H 95.76665955722186 16.098120119432167 31.65115757072681 H 0.0 **** 0.06
15169 H 95.49146635389863 17.83396482035431 31.372045591484607 H 0.0 **** 0.06
15170 H 95.31552578485622 16.6788095780218 30.029628391095457 H 0.0 **** 0.06
15171 C 66.21981120782246 95.10999644468853 78.65036543341415 C 0.0 **** -0.24
15172 H 66.77390603279284 94.2631205481913 78.24449405141274 H 0.0 **** 0.06
15173 H 65.88532002112092 94.87331431478103 79.66089482938449 H 0.0 **** 0.06
15174 H 65.35556046070971 95.31488416402829 78.01874446784137 H 0.0 **** 0.06
15175 H 66.86612069482274 95.98717249015257 78.67726541875035 H 0.0 **** 0.06
15176 C 86.49429478037473 42.51325386477015 62.106986872063686 C 0.0 **** -0.24
15177 H 85.50635381392021 42.724309370021516 61.6972740102363 H 0.0 **** 0.06
15178 H 87.09835831390387 43.420340015890105 62.081939631634015 H 0.0 **** 0.06
15179 H 86.97652128054966 41.73906697606074 61.510861376423264 H 0.0 **** 0.06
15180 H 86.39425308436228 42.16965620414854 63.13645551334508 H 0.0 **** 0.06
15181 C 72.65074564266013 14.127230737207807 39.00895789314106 C 0.0 **** -0.24
15182 H 73.48026131934012 13.658645804858189 39.539212864604934 H 0.0 **** 0.06
15183 H 71.71117744680078 13.838975137888564 39.47902026430938 H 0.0 **** 0.06
15184 H 72.65374630121732 13.799760399172897 37.96994610827659 H 0.0 **** 0.06
15185 H 72.76064374607381 15.210951875674468 39.048395053053895 H 0.0 **** 0.06
15186 C 110.60753982707156 39.65733389773425 18.114707114153617 C 0.0 **** -0.24
15187 H 110.89732080402375 39.89922926648188 19.137197700103172 H 0.0 **** 0.06
15188 H 109.91385023701648 40.41208072297928 17.745158290446057 H 0.0 **** 0.06
15189 H 110.12581856595136 38.6798668180291 18.095416931198628 H 0.0 **** 0.06
15190 H 111.49438047883274 39.637431526462024 17.48098322664862 H 0.0 **** 0.06
15191 C 46.62339519342305 23.80526832835139 102.79723225154916 C 0.0 **** -0.24
15192 H 46.2829200836955 24.65223284339524 102.20184231187324 H 0.0 **** 0.06
15193 H 47.68653181060324 23.91629931726783 103.01253689644378 H 0.0 **** 0.06
15194 H 46.45898126767497 22.881260251134364 102.24189578828657 H 0.0 **** 0.06
15195 H 46.06472445818491 23.770381895221732 103.73254093736969 H 0.0 **** 0.06
15196 C 53.73801537207684 38.27690363825731 103.2300594195695 C 0.0 **** -0.24
15197 H 54.11248141653421 39.29843527240381 103.297740323297 H 0.0 **** 0.06
15198 H 52.78597755532775 38.2029125682418 103.75618368076212 H 0.0 **** 0.06
15199 H 54.45910516514782 37.596445424479555 103.68514472194133 H 0.0 **** 0.06
15200 H 53.5974003843218 38.00931584688104 102.18299038284678 H 0.0 **** 0.06
15201 C 84.15580481352882 79.56338367684242 99.91756162892977 C 0.0 **** -0.24
15202 H 84.90588784432097 80.28776766391618 99.5991284130381 H 0.0 **** 0.06
15203 H 84.16833082706302 78.70815248996348 99.24245048020765 H 0.0 **** 0.06
15204 H 83.17083173582498 80.02921934927258 99.8966206535581 H 0.0 **** 0.06
15205 H 84.37927933053825 79.23081155082284 100.93108335645397 H 0.0 **** 0.06
15206 C 54.965240517472076 45.85941308412097 51.620770869732915 C 0.0 **** -0.24
15207 H 55.676402615808556 46.68099314913129 51.5236411926014 H 0.0 **** 0.06
15208 H 54.73319169276377 45.462867225022094 50.631659050975045 H 0.0 **** 0.06
15209 H 54.051753035419296 46.22440266538334 52.0907087794583 H 0.0 **** 0.06
15210 H 55.40172242002821 45.07269744541884 52.23580373034035 H 0.0 **** 0.06
15211 C 38.003466432815685 11.270762793931993 105.99211965686075 C 0.0 **** -0.24
15212 H 37.01645200338634 11.048739154210836 106.39848087380767 H 0.0 **** 0.06
15213 H 38.04123371320166 12.314774190747528 105.67925660096523 H 0.0 **** 0.06
15214 H 38.1960100656932 10.627167618374074 105.13436938555327 H 0.0 **** 0.06
15215 H 38.75900713281647 11.093461615307092 106.75704768754242 H 0.0 **** 0.06
15216 C 5.748518265594697 92.53223413037406 6.644004635846496 C 0.0 **** -0.24
15217 H 6.135535946598267 93.51648448563446 6.3805773547666735 H 0.0 **** 0.06
15218 H 4.985188791669955 92.6374065266923 7.416667188727516 H 0.0 **** 0.06
15219 H 6.561633769597492 91.9107428918577 7.0201485605696625 H 0.0 **** 0.06
15220 H 5.311318198031941 92.06544855710783 5.762165286445047 H 0.0 **** 0.06
15221 C 97.8760164864108 112.55058955569034 88.45482649442039 C 0.0 **** -0.24
15222 H 98.48994804724606 111.70089267417447 88.15607636394591 H 0.0 **** 0.06
15223 H 96.82244921216571 112.28256384542131 88.37927137771823 H 0.0 **** 0.06
15224 H 98.08460714788055 113.39726285765313 87.80126424661955 H 0.0 **** 0.06
15225 H 98.10908749193851 112.82127381699227 89.48529454514599 H 0.0 **** 0.06
15226 C 3.1350054958672615 82.4915692734933 69.47023164260852 C 0.0 **** -0.24
15227 H 2.808503246095654 82.00540483012583 70.39004785073112 H 0.0 **** 0.06
15228 H 4.1218032581159605 82.92936027071303 69.62062647584602 H 0.0 **** 0.06
15229 H 2.4254856701073635 83.27569482315579 69.20285508600452 H 0.0 **** 0.06
15230 H 3.1809620839825925 81.75502810859712 68.66823383882627 H 0.0 **** 0.06
15231 C 33.464108119163264 66.35435842981116 60.92645401044069 C 0.0 **** -0.24
15232 H 33.12344747346589 65.3460290728041 61.16360306456062 H 0.0 **** 0.06
15233 H 34.15157222933052 66.31498996692372 60.0803708470001 H 0.0 **** 0.06
15234 H 33.97486274435439 66.77791916000939 61.79067525323052 H 0.0 **** 0.06
15235 H 32.606451828392494 66.97581830553099 60.66897061593272 H 0.0 **** 0.06
15236 C 19.537750032768745 47.20515859455497 80.44786735400652 C 0.0 **** -0.24
15237 H 19.898000820950465 46.190193848095845 80.61467353867829 H 0.0 **** 0.06
15238 H 18.68780930629609 47.401474524380404 81.10154863306545 H 0.0 **** 0.06
15239 H 19.230981493353273 47.3146516282261 79.4073589372085 H 0.0 **** 0.06
15240 H 20.33765676308988 47.913807055281865 80.66652706786323 H 0.0 **** 0.06
15241 C 101.80973772968841 6.853249593983719 43.64099515132338 C 0.0 **** -0.24
15242 H 102.48263266545914 7.709963052060871 43.60069799255251 H 0.0 **** 0.06
15243 H 102.3180519484373 5.973383170256568 43.24834003158065 H 0.0 **** 0.06
15244 H 100.92385001762506 7.0590675451228435 43.04050843050419 H 0.0 **** 0.06
15245 H 101.51410202207038 6.672523188034731 44.67481279781106 H 0.0 **** 0.06
15246 C 31.705383296968392 19.386585096982397 86.9794194338802 C 0.0 **** -0.24
15247 H 31.262004027490292 20.35153086199059 87.22579090304203 H 0.0 **** 0.06
15248 H 32.12818508959839 18.940451686963264 87.88011475859929 H 0.0 **** 0.06
15249 H 32.49366818235714 19.526834755905213 86.23944484512546 H 0.0 **** 0.06
15250 H 30.938034796851042 18.72720485973823 86.57320471116327 H 0.0 **** 0.06
15251 C 16.47625115792986 67.01861910406541 34.2071470299338 C 0.0 **** -0.24
15252 H 17.068824422089968 66.3037194682272 33.63591953499755 H 0.0 **** 0.06
15253 H 15.621557579490776 66.5084159901186 34.65110654181043 H 0.0 **** 0.06
15254 H 16.124167354009916 67.80915637910505 33.54470897190488 H 0.0 **** 0.06
15255 H 17.092072821072033 67.45183719588877 34.99560069409846 H 0.0 **** 0.06
15256 C 108.79621345695654 7.349142441974621 65.64053750323194 C 0.0 **** -0.24
15257 H 107.89033065441066 7.321792956904787 66.24599661407751 H 0.0 **** 0.06
15258 H 108.96620327295614 8.36688618258384 65.287053955729 H 0.0 **** 0.06
15259 H 108.6823068974038 6.681465618601862 64.78627327629567 H 0.0 **** 0.06
15260 H 109.64554272685723 7.027229283531398 66.24246279263974 H 0.0 **** 0.06
15261 C 112.19187344010945 78.5268931969861 42.06435004947697 C 0.0 **** -0.24
15262 H 112.68910099547156 78.90786665534947 41.17208305166079 H 0.0 **** 0.06
15263 H 112.62924393512769 78.99100349143373 42.94920154116953 H 0.0 **** 0.06
15264 H 112.3219848494421 77.44540846914356 42.11838032952892 H 0.0 **** 0.06
15265 H 111.12916731691303 78.76326272841737 42.016742331582435 H 0.0 **** 0.06
15266 C 20.687843807830262 57.15568991742012 10.139331828990109 C 0.0 **** -0.24
15267 H 21.427236960568365 56.83639476733163 10.87292619192992 H 0.0 **** 0.06
15268 H 19.799731997200524 56.528134685776834 10.222933953884734 H 0.0 **** 0.06
15269 H 21.106247549884955 57.062432755235484 9.137452711022519 H 0.0 **** 0.06
15270 H 20.417016573730223 58.194661935847044 10.32520033528806 H 0.0 **** 0.06
15271 C 10.52494996474979 98.56312872993519 110.28551823339255 C 0.0 **** -0.24
15272 H 11.251358701745069 99.37415736711384 110.34415550854733 H 0.0 **** 0.06
15273 H 9.524960955051734 98.98028975613059 110.16008242896024 H 0.0 **** 0.06
15274 H 10.561245337091464 97.97619215042965 111.2034095671327 H 0.0 **** 0.06
15275 H 10.761612008880416 97.92422877364845 109.43469962054476 H 0.0 **** 0.06
15276 C 34.023175701534456 9.577269884286977 100.86080242572228 C 0.0 **** -0.24
15277 H 34.806678315533134 9.002039124808846 101.35443653732011 H 0.0 **** 0.06
15278 H 33.99088232457183 10.58281895354179 101.28343790625826 H 0.0 **** 0.06
15279 H 33.061951390634476 9.087607086501748 101.01309980265955 H 0.0 **** 0.06
15280 H 34.23438718206313 9.638195387762096 99.79367397725537 H 0.0 **** 0.06
15281 C 14.676981747964817 17.899129612332075 70.79851205817388 C 0.0 **** -0.24
15282 H 14.218504862382105 17.79214245994197 71.7810149942876 H 0.0 **** 0.06
15283 H 15.489318713504076 18.624431416089863 70.85286629720613 H 0.0 **** 0.06
15284 H 13.928975050179673 18.24293974502737 70.08402975033982 H 0.0 **** 0.06
15285 H 15.070978692898393 16.934777337570978 70.47601004200425 H 0.0 **** 0.06
15286 C 21.06930963385809 5.749417689984057 45.6622600863592 C 0.0 **** -0.24
15287 H 21.519125568804903 6.344492201090816 44.86721142998158 H 0.0 **** 0.06
15288 H 21.355837955701652 6.160041811620999 46.63018503805165 H 0.0 **** 0.06
15289 H 21.417381483007656 4.718613853364673 45.58595865090973 H 0.0 **** 0.06
15290 H 19.982989926997433 5.773806336521261 45.563719697835666 H 0.0 **** 0.06
15291 C 74.85466940378456 49.41848276742229 99.69964354497341 C 0.0 **** -0.24
15292 H 74.8501316900979 50.506470462140896 99.75973957045915 H 0.0 **** 0.06
15293 H 75.51401316598859 49.10175914889385 98.89115150622257 H 0.0 **** 0.06
15294 H 73.84311860018704 49.061269457436765 99.50577237445356 H 0.0 **** 0.06
15295 H 75.2111202282887 49.00445386842165 100.64388894854807 H 0.0 **** 0.06
15296 C 80.28181864511242 77.70790513013444 81.35236676917452 C 0.0 **** -0.24
15297 H 80.69207354150586 78.67885822747235 81.63073598038739 H 0.0 **** 0.06
15298 H 79.19324086875335 77.76371895107138 81.34238486688812 H 0.0 **** 0.06
15299 H 80.60163904519209 76.95819083070435 82.07594935654808 H 0.0 **** 0.06
15300 H 80.64201988517934 77.4332234744794 80.36161888541073 H 0.0 **** 0.06
15301 C 86.70704932768058 74.11899600623451 105.07340090889136 C 0.0 **** -0.24
15302 H 87.12489870950594 74.42448060478705 104.11432248462904 H 0.0 **** 0.06
15303 H 86.49812831369866 75.00428505866842 105.67585324709319 H 0.0 **** 0.06
15304 H 87.42180445573865 73.48387685523983 105.59527931992801 H 0.0 **** 0.06
15305 H 85.78227186969173 73.56643718883481 104.90767888166783 H 0.0 **** 0.06
15306 C 108.48819828130772 31.239054027378728 6.26776338871778 C 0.0 **** -0.24
15307 H 107.81558939305911 31.962878655313574 6.728162771773913 H 0.0 **** 0.06
15308 H 107.9611545161085 30.29645318552653 6.119878587560683 H 0.0 **** 0.06
15309 H 109.34798536396936 31.077567055217486 6.9170718304945655 H 0.0 **** 0.06
15310 H 108.82715501057957 31.62057739757026 5.304332190075513 H 0.0 **** 0.06
15311 C 87.94983021229194 67.31617916442522 12.617025901450262 C 0.0 **** -0.24
15312 H 88.25184992480138 67.3134712655964 11.569643374544597 H 0.0 **** 0.06
15313 H 87.5191144507553 68.28589908078484 12.868295990646061 H 0.0 **** 0.06
15314 H 88.81940413189312 67.13010312008231 13.246839569665696 H 0.0 **** 0.06
15315 H 87.2080873665455 66.53500310394725 12.782883952476965 H 0.0 **** 0.06
15316 C 52.29568655151462 110.63230239811985 52.26371639692516 C 0.0 **** -0.24
15317 H 51.31476410393 110.46495740619085 52.7092545323103 H 0.0 **** 0.06
15318 H 52.17626159219148 111.11194279132154 51.291773388119054 H 0.0 **** 0.06
15319 H 52.80457586426786 109.6762053040524 52.138024518259584 H 0.0 **** 0.06
15320 H 52.88695403351463 111.27471184909611 52.91597265817313 H 0.0 **** 0.06
15321 C 102.5523033518057 104.13193173472325 106.24364715746091 C 0.0 **** -0.24
15322 H 101.87750256800294 103.61293751632411 105.56237604030994 H 0.0 **** 0.06
15323 H 101.97806392182383 104.80404184452448 106.8812720189521 H 0.0 **** 0.06
15324 H 103.27638706491643 104.70783540524951 105.66749690141177 H 0.0 **** 0.06
15325 H 103.07653190124677 103.40294184584252 106.8613295523019 H 0.0 **** 0.06
15326 C 37.80764692338635 79.62218116003532 83.88921649803734 C 0.0 **** -0.24
15327 H 38.32217644948879 80.36742154288856 84.49554273740634 H 0.0 **** 0.06
15328 H 38.388073913465746 79.42360832102509 82.98780939270435 H 0.0 **** 0.06
15329 H 36.822255372387595 79.99820396571585 83.61183985876912 H 0.0 **** 0.06
15330 H 37.69693910929564 78.70164763986426 84.46187973091025 H 0.0 **** 0.06
15331 C 63.398779905594104 50.071211341839614 38.287379174210045 C 0.0 **** -0.24
15332 H 64.25607932604575 50.625136247927486 37.90481376204377 H 0.0 **** 0.06
15333 H 62.49316586668325 50.66136891184492 38.14842010180733 H 0.0 **** 0.06
15334 H 63.54249740172789 49.869133685036935 39.34874399602563 H 0.0 **** 0.06
15335 H 63.30469460843198 49.12819263412679 37.7480248225921 H 0.0 **** 0.06
15336 C 32.24580754781751 84.53169374051828 91.02588707386354 C 0.0 **** -0.24
15337 H 32.23266032850231 84.56093894991585 89.93647289926764 H 0.0 **** 0.06
15338 H 33.209887500503854 84.15349384470224 91.3673283251315 H 0.0 **** 0.06
15339 H 31.45099105974237 83.87552306255839 91.38076055626658 H 0.0 **** 0.06
15340 H 32.08969130252137 85.53681910489684 91.41898651478817 H 0.0 **** 0.06
15341 C 109.25924400437731 17.865786520940475 29.756193010267324 C 0.0 **** -0.24
15342 H 108.36285974264959 17.249138937270317 29.683926472800223 H 0.0 **** 0.06
15343 H 110.08664100391897 17.262140979736756 30.12956637736393 H 0.0 **** 0.06
15344 H 109.07617872785895 18.694359962618876 30.440403176054737 H 0.0 **** 0.06
15345 H 109.51153711948689 18.25675497336536 28.770261334407685 H 0.0 **** 0.06
15346 C 54.383423834042674 35.872345418223716 16.035864284305404 C 0.0 **** -0.24
15347 H 53.484716999027725 36.30972605567558 15.601116558017605 H 0.0 **** 0.06
15348 H 55.13967114558311 35.750126267551195 15.260482526370858 H 0.0 **** 0.06
15349 H 54.14232503906846 34.89984520068785 16.465602708966724 H 0.0 **** 0.06
15350 H 54.765526068326395 36.529174794617944 16.817874189336347 H 0.0 **** 0.06
15351 C 99.62884731757006 3.8293152773119488 29.522576760784318 C 0.0 **** -0.24
15352 H 100.04218728059192 2.9730136870918358 30.05548017647868 H 0.0 **** 0.06
15353 H 99.95704792866326 3.802907846616364 28.482890044703822 H 0.0 **** 0.06
15354 H 99.97551946338774 4.750136932487422 29.99046481427513 H 0.0 **** 0.06
15355 H 98.54013514735388 3.7890440179261873 29.561170062986434 H 0.0 **** 0.06
15356 C 16.65116054340736 62.09478563713219 12.777400772073676 C 0.0 **** -0.24
15357 H 16.670386213410044 61.14611015380362 13.314892777477581 H 0.0 **** 0.06
15358 H 17.101633889865397 62.870852399632696 13.396374557567952 H 0.0 **** 0.06
15359 H 15.619098740151241 62.36299599263421 12.551159664276469 H 0.0 **** 0.06
15360 H 17.21401886628143 61.99719021855782 11.849580218127215 H 0.0 **** 0.06
15361 C 54.22426226501366 30.619000570403074 0.08455738690241255 C 0.0 **** -0.24
15362 H 54.144780951069336 31.6712511190878 -0.19007134867172937 H 0.0 **** 0.06
15363 H 53.88773889543728 30.48672197148494 1.1136175770303938 H 0.0 **** 0.06
15364 H 55.26273523037969 30.29883232579286 -0.002469091927269851 H 0.0 **** 0.06
15365 H 53.6025843631044 30.021944185897013 -0.5819376221655821 H 0.0 **** 0.06
15366 C 31.778751334721903 21.561784427153526 79.26339042413898 C 0.0 **** -0.24
15367 H 31.517272184712482 20.75147084463262 79.94359841940977 H 0.0 **** 0.06
15368 H 30.867651071643195 22.009681654642662 78.86479180564339 H 0.0 **** 0.06
15369 H 32.38016084525328 21.1681655673097 78.44389534231755 H 0.0 **** 0.06
15370 H 32.35039145760781 22.317717972622034 79.80260604257379 H 0.0 **** 0.06
15371 C 6.691567521199673 95.47253302600245 76.01768812754517 C 0.0 **** -0.24
15372 H 6.113252645698921 94.80866576896995 75.37579599645994 H 0.0 **** 0.06
15373 H 6.987568547505447 94.93863734758273 76.92034373717138 H 0.0 **** 0.06
15374 H 6.0834327747536605 96.33639979462123 76.28844225885553 H 0.0 **** 0.06
15375 H 7.581268799027001 95.8081448024723 75.48494639217793 H 0.0 **** 0.06
15376 C 73.81754630434082 84.74083832993938 64.63093195664626 C 0.0 **** -0.24
15377 H 73.60506959260803 85.10703061933995 63.6260258419915 H 0.0 **** 0.06
15378 H 74.71560598621718 84.12225465853689 64.61018290380727 H 0.0 **** 0.06
15379 H 72.97551883852094 84.14761725556579 64.98586128061422 H 0.0 **** 0.06
15380 H 73.97516575071123 85.58747626470713 65.29976882551011 H 0.0 **** 0.06
15381 C 31.302213371487866 53.21737228849174 98.76104972248015 C 0.0 **** -0.24
15382 H 31.738523326238237 54.058224902818424 99.29894638202629 H 0.0 **** 0.06
15383 H 30.224610648258476 53.36001160862357 98.67506231640505 H 0.0 **** 0.06
15384 H 31.503789500924 52.29363534376397 99.30464385901442 H 0.0 **** 0.06
15385 H 31.74079673952393 53.155807270301764 97.76488317531397 H 0.0 **** 0.06
15386 C 74.48515382579691 23.5002973195746 91.77683152605596 C 0.0 **** -0.24
15387 H 75.49335905001345 23.68413358914421 91.40483841758783 H 0.0 **** 0.06
15388 H 74.25732309797152 22.43659175438472 91.6976033257886 H 0.0 **** 0.06
15389 H 73.76945737692839 24.070078115411974 91.18392525615945 H 0.0 **** 0.06
15390 H 74.4216170103779 23.80884608852594 92.81980710561234 H 0.0 **** 0.06
15391 C 16.4374145955814 24.088719513498035 100.69040843849558 C 0.0 **** -0.24
15392 H 16.13471074029772 25.060455870318464 100.29979067118569 H 0.0 **** 0.06
15393 H 17.4918023574331 24.120126773430115 100.96283522726208 H 0.0 **** 0.06
15394 H 16.27977387807249 23.32544962207905 99.92809754910161 H 0.0 **** 0.06
15395 H 15.840748093165104 23.850269231682717 101.57060609253807 H 0.0 **** 0.06
15396 C 102.35865133792731 106.27236811977687 74.6614489207414 C 0.0 **** -0.24
15397 H 101.48067309053982 105.75921060777557 75.05590810688261 H 0.0 **** 0.06
15398 H 102.96473257707117 105.56798050132201 74.09126295728271 H 0.0 **** 0.06
15399 H 102.94644213220928 106.67407034275229 75.48612620965494 H 0.0 **** 0.06
15400 H 102.04067073694642 107.08746236710124 74.01047721596314 H 0.0 **** 0.06
15401 C 13.838917710704834 93.80913541444164 40.503187873349134 C 0.0 **** -0.24
15402 H 14.867031741183553 94.0520389490278 40.77065146339754 H 0.0 **** 0.06
15403 H 13.469217022975783 93.02098290019336 41.15927355169447 H 0.0 **** 0.06
15404 H 13.803434509404212 93.46750850634083 39.46829443094367 H 0.0 **** 0.06
15405 H 13.215842377296724 94.69585264236997 40.61355541893886 H 0.0 **** 0.06
15406 C 111.64675142922485 87.08580845259522 12.767607670754472 C 0.0 **** -0.24
15407 H 110.81691314827873 86.63332153218849 12.224784126571706 H 0.0 **** 0.06
15408 H 111.4218052722793 88.13349610094525 12.966520192841045 H 0.0 **** 0.06
15409 H 112.55366495062427 87.0154453819865 12.167372490755497 H 0.0 **** 0.06
15410 H 111.79298219872831 86.55953382864826 13.711258566449914 H 0.0 **** 0.06
15411 C 25.325346553447446 13.317486210910172 94.16510314534997 C 0.0 **** -0.24
15412 H 24.24633775335687 13.431188543460035 94.27278887923299 H 0.0 **** 0.06
15413 H 25.830709747032458 14.114294224883505 94.7098079814871 H 0.0 **** 0.06
15414 H 25.59152013115599 13.372559399763212 93.10919074296791 H 0.0 **** 0.06
15415 H 25.630224565335197 12.3513360675212 94.5672283596015 H 0.0 **** 0.06
15416 C 58.52024036312247 13.964543636340267 9.555439453519037 C 0.0 **** -0.24
15417 H 59.33653251299182 13.562759161847012 8.955204708955018 H 0.0 **** 0.06
15418 H 57.57797888580478 13.52681871690217 9.226186390308769 H 0.0 **** 0.06
15419 H 58.48040269510898 15.047782224760098 9.436155867319615 H 0.0 **** 0.06
15420 H 58.68839422335492 13.720822930129003 10.604912626688204 H 0.0 **** 0.06
15421 C 72.57329451579781 1.1370376266846165 19.610705037431046 C 0.0 **** -0.24
15422 H 73.37354373334261 0.3975959078406959 19.567385553741047 H 0.0 **** 0.06
15423 H 72.268604535603 1.281416787454475 20.647941338941052 H 0.0 **** 0.06
15424 H 71.72261239975467 0.785568749461163 19.0282302630915 H 0.0 **** 0.06
15425 H 72.92929898334344 2.0820318340218478 19.20062681758759 H 0.0 **** 0.06
15426 C 67.69771849138729 105.30200700184147 17.144373326467207 C 0.0 **** -0.24
15427 H 67.97760550590522 105.31951349695359 18.197394758876225 H 0.0 **** 0.06
15428 H 68.18631215397849 104.46032852206469 16.652183289275616 H 0.0 **** 0.06
15429 H 68.00971958872208 106.23225353338967 16.670119103332755 H 0.0 **** 0.06
15430 H 66.6164000763226 105.19538985912905 17.05772079549571 H 0.0 **** 0.06
15431 C 77.63037694858676 49.253542899273754 25.96499550343418 C 0.0 **** -0.24
15432 H 77.16798594001679 50.1011380661497 26.47225624439534 H 0.0 **** 0.06
15433 H 77.40515813381538 48.337072729148105 26.51070909300188 H 0.0 **** 0.06
15434 H 78.70949871138401 49.39882570304306 25.925429543862663 H 0.0 **** 0.06
15435 H 77.23667788320066 49.17886969227183 24.951130931552882 H 0.0 **** 0.06
15436 C 92.0620847760643 91.68732009679798 87.56178373035473 C 0.0 **** -0.24
15437 H 92.02891779267247 91.7112437474016 88.65164660137097 H 0.0 **** 0.06
15438 H 91.62218856594541 92.6020192703505 87.16500405797751 H 0.0 **** 0.06
15439 H 91.49851480362832 90.8262660032672 87.20130741628884 H 0.0 **** 0.06
15440 H 93.09810815465696 91.60788454905543 87.23220073245929 H 0.0 **** 0.06
15441 C 28.928638876209504 109.60242331756001 13.903310612338412 C 0.0 **** -0.24
15442 H 28.858348042922103 108.79487418246231 13.17401161252554 H 0.0 **** 0.06
15443 H 28.245386542017087 109.40621915182834 14.729825332683898 H 0.0 **** 0.06
15444 H 28.661046548290173 110.54494649110285 13.425502270211023 H 0.0 **** 0.06
15445 H 29.949229488058876 109.66323842480142 14.280363234259973 H 0.0 **** 0.06
15446 C 99.09431211388065 0.8136604885964358 27.140447734982402 C 0.0 **** -0.24
15447 H 98.51234609609924 1.732720831749468 27.192186619066575 H 0.0 **** 0.06
15448 H 98.47061145664867 -0.029416864866935732 27.437514144826878 H 0.0 **** 0.06
15449 H 99.95033825652902 0.8871412192909389 27.812117508088917 H 0.0 **** 0.06
15450 H 99.44629076365749 0.663595092385048 26.11955850190634 H 0.0 **** 0.06
15451 C 22.710737015061113 1.2854937130833646 69.83578393395948 C 0.0 **** -0.24
15452 H 22.99451141305059 1.7015846451754744 68.86929037573765 H 0.0 **** 0.06
15453 H 21.76166846931318 1.7185533723166735 70.15222292318336 H 0.0 **** 0.06
15454 H 23.47958313768015 1.5186319562840778 70.57258146581063 H 0.0 **** 0.06
15455 H 22.60600367483096 0.20396823514730578 69.74889340407844 H 0.0 **** 0.06
15456 C 0.2873945039141006 31.733494266119067 45.21207177692464 C 0.0 **** -0.24
15457 H 1.3691785921533892 31.787260008290474 45.09280828866071 H 0.0 **** 0.06
15458 H 0.04042921656355247 30.9520947006894 45.93192964512893 H 0.0 **** 0.06
15459 H -0.17236536077996334 31.500999173894485 44.250815637885 H 0.0 **** 0.06
15460 H -0.08686078924364438 32.69169851819939 45.57192724062323 H 0.0 **** 0.06
15461 C 16.568279161040934 89.12009567612165 2.7775996138055916 C 0.0 **** -0.24
15462 H 17.082993857037557 89.56249043288682 1.9247877699818474 H 0.0 **** 0.06
15463 H 17.101127574065583 88.22567290399809 3.0992466594314863 H 0.0 **** 0.06
15464 H 15.551033405384327 88.85475659841893 2.4901041848412575 H 0.0 **** 0.06
15465 H 16.537963970432685 89.83935234903242 3.5969153638192637 H 0.0 **** 0.06
15466 C 53.264653968692386 24.760585742915197 91.64063014942946 C 0.0 **** -0.24
15467 H 52.82055579389919 25.01357860190214 92.60279216838813 H 0.0 **** 0.06
15468 H 54.33661426607824 24.6076211334142 91.76339540703529 H 0.0 **** 0.06
15469 H 53.09152872681989 25.57426005599811 90.93566901295168 H 0.0 **** 0.06
15470 H 52.8079588814131 23.846640337057337 91.25961199326582 H 0.0 **** 0.06
15471 C 94.76836828960603 29.94852166775894 18.962739470493375 C 0.0 **** -0.24
15472 H 94.94311898529884 28.873585740501937 19.0028930502489 H 0.0 **** 0.06
15473 H 94.2963378084454 30.27440119551426 19.88957664295401 H 0.0 **** 0.06
15474 H 94.11546203889407 30.178569013320043 18.120686594898785 H 0.0 **** 0.06
15475 H 95.71976868578895 30.466639335297714 18.83694664929058 H 0.0 **** 0.06
15476 C 24.1668504025493 96.93651648829805 90.97804233863442 C 0.0 **** -0.24
15477 H 24.080444973732114 95.85951529962287 90.83288052554599 H 0.0 **** 0.06
15478 H 25.16247773691748 97.17363997969721 91.35343422536346 H 0.0 **** 0.06
15479 H 23.41825458318388 97.26691238057907 91.69715301332897 H 0.0 **** 0.06
15480 H 24.006438189397727 97.44499971879708 90.02730256296854 H 0.0 **** 0.06
15481 C 7.61106330086821 70.95870145219328 78.02598298102811 C 0.0 **** -0.24
15482 H 6.754818961618099 71.55476015553904 77.71101311342406 H 0.0 **** 0.06
15483 H 8.03009812860526 70.43975686201657 77.16334124276133 H 0.0 **** 0.06
15484 H 7.2913484441317 70.22737475324013 78.76904093384823 H 0.0 **** 0.06
15485 H 8.367804428828265 71.61123276599994 78.4609106898308 H 0.0 **** 0.06
15486 C 15.45014914973703 8.094257841497608 80.69719005299424 C 0.0 **** -0.24
15487 H 14.966864871417414 8.72891760515762 81.44012524004546 H 0.0 **** 0.06
15488 H 15.195211769045386 8.446738668888713 79.69804764323055 H 0.0 **** 0.06
15489 H 15.107892136980638 7.066387676264753 80.81992344452095 H 0.0 **** 0.06
15490 H 16.53083473619037 8.135376501261504 80.83307347731255 H 0.0 **** 0.06
15491 C 23.796469667291106 11.633612644291475 105.69986688412598 C 0.0 **** -0.24
15492 H 23.819569026708677 11.701551578139814 104.61242627131318 H 0.0 **** 0.06
15493 H 22.766846637544887 11.504630255034783 106.03365327330599 H 0.0 **** 0.06
15494 H 24.205794688405945 12.547546287421241 106.13057760589291 H 0.0 **** 0.06
15495 H 24.393027467069942 10.780237640156969 106.02340563532647 H 0.0 **** 0.06
15496 C 52.56454995136653 86.00800254250805 52.26139283318441 C 0.0 **** -0.24
15497 H 51.55881010785254 86.3710244310696 52.46928890202876 H 0.0 **** 0.06
15498 H 52.66473023718538 84.98529851465821 52.62669934220357 H 0.0 **** 0.06
15499 H 53.29197048941245 86.6462865294551 52.7635106825945 H 0.0 **** 0.06
15500 H 52.7439346923814 86.029450266259 51.18674011423209 H 0.0 **** 0.06
15501 C 9.681332427332066 50.13978781639662 25.201217671029383 C 0.0 **** -0.24
15502 H 9.27801532701801 50.05204337417604 24.192223796979647 H 0.0 **** 0.06
15503 H 9.351141335171164 51.08000203176164 25.64331209849388 H 0.0 **** 0.06
15504 H 10.770161852882396 50.11820696553036 25.159864107168914 H 0.0 **** 0.06
15505 H 9.323828174317143 49.30717803421271 25.808342153388764 H 0.0 **** 0.06
15506 C 19.71799724099222 21.78824253765589 85.19142702036933 C 0.0 **** -0.24
15507 H 19.967846582214364 22.808134805953557 84.89748058153606 H 0.0 **** 0.06
15508 H 19.777783100125756 21.13439694956243 84.3218668224444 H 0.0 **** 0.06
15509 H 18.706449924462344 21.765187373993015 85.59616131013601 H 0.0 **** 0.06
15510 H 20.421553124900576 21.44828469387508 85.95245675999826 H 0.0 **** 0.06
15511 C 37.961052732949895 7.611367042841181 41.13005200304991 C 0.0 **** -0.24
15512 H 38.04928115630321 6.643525556907633 40.63662826475371 H 0.0 **** 0.06
15513 H 37.900463734975204 8.39870451055836 40.37818291938757 H 0.0 **** 0.06
15514 H 38.83382676871469 7.778657587979225 41.76180969983531 H 0.0 **** 0.06
15515 H 37.060489940378886 7.62537999774608 41.74416900935981 H 0.0 **** 0.06
15516 C 11.118120160317805 37.77591238809901 77.96121708539653 C 0.0 **** -0.24
15517 H 10.991360109675917 38.54377395799338 77.19720663922857 H 0.0 **** 0.06
15518 H 11.194843650617454 36.79843280255138 77.48349055366072 H 0.0 **** 0.06
15519 H 10.25888252782837 37.78706669307836 78.63159581876408 H 0.0 **** 0.06
15520 H 12.025757122785897 37.97595046821477 78.5296018417913 H 0.0 **** 0.06
15521 C 70.25859937160078 103.91020804965976 51.591265951425896 C 0.0 **** -0.24
15522 H 69.9266053880934 103.79225537039207 52.62306805779548 H 0.0 **** 0.06
15523 H 69.40506767901985 104.15985931431743 50.96208059964715 H 0.0 **** 0.06
15524 H 70.70538543335425 102.9781183715221 51.245704928320606 H 0.0 **** 0.06
15525 H 70.99707807400227 104.70924062650835 51.537224682325416 H 0.0 **** 0.06
15526 C 84.90974119733352 59.50360778925964 47.48260369625254 C 0.0 **** -0.24
15527 H 85.52494651924295 59.79412500853109 46.630774154053654 H 0.0 **** 0.06
15528 H 84.92837622275505 58.41919587024898 47.59008346655236 H 0.0 **** 0.06
15529 H 83.88405106407191 59.83537618981533 47.31955799039258 H 0.0 **** 0.06
15530 H 85.30263576140084 59.966459698692965 48.38816009488639 H 0.0 **** 0.06
15531 C 63.75738321409804 72.5723167689647 83.8978992553935 C 0.0 **** -0.24
15532 H 64.06839250684254 73.43757344319121 83.31142456036588 H 0.0 **** 0.06
15533 H 62.76212719104737 72.25742946606226 83.58055093731599 H 0.0 **** 0.06
15534 H 63.7342697324502 72.83866951051618 84.95482375605928 H 0.0 **** 0.06
15535 H 64.46278010961862 71.75642384001313 83.74359021537288 H 0.0 **** 0.06
15536 C 12.69202128909194 29.153651834023748 44.71399307577866 C 0.0 **** -0.24
15537 H 13.123887975689058 29.641351884857585 43.83984478320306 H 0.0 **** 0.06
15538 H 11.95780255366202 29.81607292453984 45.172602433179236 H 0.0 **** 0.06
15539 H 13.480582896733722 28.931987651194788 45.43314603109451 H 0.0 **** 0.06
15540 H 12.206301120794137 28.227368449447766 44.41018838091165 H 0.0 **** 0.06
15541 C 51.366343068608614 83.7187710961428 106.51298700098208 C 0.0 **** -0.24
15542 H 50.76476605677081 83.01117622489755 107.0839537375611 H 0.0 **** 0.06
15543 H 51.33595886738169 84.69559422959571 106.9971169779332 H 0.0 **** 0.06
15544 H 50.968608602562625 83.80073967562024 105.50197919863473 H 0.0 **** 0.06
15545 H 52.39788540448558 83.36610365671612 106.46955195630835 H 0.0 **** 0.06
15546 C 102.44941780392631 81.39059790147584 85.76065784797547 C 0.0 **** -0.24
15547 H 103.30433392682997 80.72548036063179 85.88306486381424 H 0.0 **** 0.06
15548 H 101.71323796249226 81.1822021092346 86.537826360611 H 0.0 **** 0.06
15549 H 101.99976753060687 81.2273574360199 84.7805401769584 H 0.0 **** 0.06
15550 H 102.77952550604141 82.42621282506903 85.84096982934986 H 0.0 **** 0.06
15551 C 63.27238614169255 52.15400320442967 60.097110686229435 C 0.0 **** -0.24
15552 H 63.42301740745705 51.10949842095425 59.82611564392736 H 0.0 **** 0.06
15553 H 63.70508761238872 52.794975144080695 59.32758945799984 H 0.0 **** 0.06
15554 H 63.75684509570968 52.354883403104395 61.05236721044658 H 0.0 **** 0.06
15555 H 62.20507104442879 52.357007958939164 60.1810863019608 H 0.0 **** 0.06
15556 C 10.125863407346184 5.884519157505867 24.690471735372427 C 0.0 **** -0.24
15557 H 10.010212043818317 6.523918217556176 25.564908080978086 H 0.0 **** 0.06
15558 H 11.180955567364087 5.820430223260022 24.423588694218807 H 0.0 **** 0.06
15559 H 9.564024774871283 6.304239212305264 23.855351455625964 H 0.0 **** 0.06
15560 H 9.748199057726115 4.887082838931978 24.917583767416033 H 0.0 **** 0.06
15561 C 20.98084999426041 81.71937701091093 91.24044334658475 C 0.0 **** -0.24
15562 H 20.766406647505107 81.3099580542148 90.25323791544136 H 0.0 **** 0.06
15563 H 20.073127121298313 82.15520019931444 91.65850764407409 H 0.0 **** 0.06
15564 H 21.747223266524657 82.49017020165837 91.1547736709507 H 0.0 **** 0.06
15565 H 21.33619934189855 80.92326290015296 91.89446057637517 H 0.0 **** 0.06
15566 C 105.68446727124837 51.765387742263954 24.290184585060786 C 0.0 **** -0.24
15567 H 105.25562417586067 51.48186764769207 23.329060585671726 H 0.0 **** 0.06
15568 H 104.9321212642094 52.285029609776075 24.883826923000143 H 0.0 **** 0.06
15569 H 106.53711357551964 52.4243551589546 24.125865927254722 H 0.0 **** 0.06
15570 H 106.01264609333882 50.87156231821319 24.820478038404474 H 0.0 **** 0.06
15571 C 66.3742231587564 79.10056551624129 33.466587159570395 C 0.0 **** -0.24
15572 H 67.07450677669632 78.37000470168584 33.871763850289426 H 0.0 **** 0.06
15573 H 65.66598883929265 79.39397572320644 34.24158586961124 H 0.0 **** 0.06
15574 H 65.83529946507579 78.66064078516905 32.62790913398982 H 0.0 **** 0.06
15575 H 66.92390114330865 79.97867014464032 33.12480524982419 H 0.0 **** 0.06
15576 C 65.93307793641137 57.459830607005074 78.21071590702473 C 0.0 **** -0.24
15577 H 65.69007259620577 58.18623177176687 78.98524160508896 H 0.0 **** 0.06
15578 H 67.01505712902616 57.339952312699324 78.15166816686764 H 0.0 **** 0.06
15579 H 65.55281497858883 57.809730654194595 77.2510766934542 H 0.0 **** 0.06
15580 H 65.4747506118486 56.50173618667077 78.45512031484014 H 0.0 **** 0.06
15581 C 45.470144469543385 17.039425725268842 41.26259416972696 C 0.0 **** -0.24
15582 H 44.69187796109986 17.090156369426637 40.501049660139486 H 0.0 **** 0.06
15583 H 45.07038505969075 17.385908965404553 42.214849957746694 H 0.0 **** 0.06
15584 H 46.30722853507885 17.671255527412512 40.96737442160924 H 0.0 **** 0.06
15585 H 45.811749817945014 16.00867106550362 41.36384179014602 H 0.0 **** 0.06
15586 C 15.234925231350587 5.195000378920156 37.96408957706302 C 0.0 **** -0.24
15587 H 15.19469648914486 5.429331012726493 39.02759470727875 H 0.0 **** 0.06
15588 H 14.949709579129319 6.073924775681974 37.38750634437798 H 0.0 **** 0.06
15589 H 14.547785639951712 4.377642820549795 37.74657368816412 H 0.0 **** 0.06
15590 H 16.249579002536734 4.897728607366673 37.697097687427686 H 0.0 **** 0.06
15591 C 99.0509876863627 107.424420684262 37.35037980465344 C 0.0 **** -0.24
15592 H 99.58180513254948 108.3201513633634 37.67170321855863 H 0.0 **** 0.06
15593 H 99.72858254629193 106.57068291432377 37.37694011432018 H 0.0 **** 0.06
15594 H 98.68357361406802 107.56510986574264 36.33397937694963 H 0.0 **** 0.06
15595 H 98.20944228849393 107.24126128689393 38.01958414714957 H 0.0 **** 0.06
15596 C 26.701811957709452 12.232063924627383 89.29418522928557 C 0.0 **** -0.24
15597 H 26.975611679364945 12.754942043413195 90.2107868870763 H 0.0 **** 0.06
15598 H 26.917464637678137 12.868156392983238 88.43502473809991 H 0.0 **** 0.06
15599 H 25.638221268530756 11.995700976198378 89.31380044652704 H 0.0 **** 0.06
15600 H 27.278382450851183 11.30922217305367 89.21730178326678 H 0.0 **** 0.06
15601 C 54.68291718016948 94.02154090723582 54.597180265059706 C 0.0 **** -0.24
15602 H 54.30401728629434 94.75216424178029 55.31241858249575 H 0.0 **** 0.06
15603 H 55.762230830935465 93.92099668481353 54.71917368621308 H 0.0 **** 0.06
15604 H 54.460524603310745 94.35662325184524 53.58399777226134 H 0.0 **** 0.06
15605 H 54.206221652137515 93.05828134191853 54.77392209206306 H 0.0 **** 0.06
15606 C 76.2041401497377 39.15023364633717 29.17184265146966 C 0.0 **** -0.24
15607 H 76.82531594425146 38.66414772193747 28.418502366815503 H 0.0 **** 0.06
15608 H 76.80768577923439 39.861851864166994 29.73570043786937 H 0.0 **** 0.06
15609 H 75.80128526857212 38.39733454953432 29.849445260188105 H 0.0 **** 0.06
15610 H 75.38414870262076 39.67547417345946 28.68200103315533 H 0.0 **** 0.06
15611 C 102.87251890150287 109.84350599361298 87.25797304880095 C 0.0 **** -0.24
15612 H 103.29215307935826 110.82436057149823 87.48492003077502 H 0.0 **** 0.06
15613 H 101.91998989494272 109.72775596322347 87.77622287207598 H 0.0 **** 0.06
15614 H 103.5632148636293 109.06849947016192 87.58812344846353 H 0.0 **** 0.06
15615 H 102.71472573657022 109.75656690506077 86.18277291629732 H 0.0 **** 0.06
15616 C 56.90656757282099 5.83868191460585 109.0802765447423 C 0.0 **** -0.24
15617 H 56.138315423818 5.783199039437724 108.30857860137154 H 0.0 **** 0.06
15618 H 57.7576019353115 6.407629080481662 108.70402648605788 H 0.0 **** 0.06
15619 H 57.23011092938873 4.832400727768796 109.34440189210969 H 0.0 **** 0.06
15620 H 56.50095115371286 6.33350101024916 109.96175636583038 H 0.0 **** 0.06
15621 C 18.90036581025538 82.88932429536663 10.349400409273287 C 0.0 **** -0.24
15622 H 19.60631560901072 82.97631920272443 9.522420811379618 H 0.0 **** 0.06
15623 H 18.01394881999437 83.4865570793967 10.133955863040796 H 0.0 **** 0.06
15624 H 19.368453269193424 83.25067078488385 11.26507351514131 H 0.0 **** 0.06
15625 H 18.614826296458546 81.84555865242092 10.474307463063525 H 0.0 **** 0.06
15626 C 67.11844697479762 52.000523580390436 83.0339758547421 C 0.0 **** -0.24
15627 H 67.23659160114485 52.99333505601668 83.46998468895742 H 0.0 **** 0.06
15628 H 68.06656773525532 51.678578051316784 82.60255202140601 H 0.0 **** 0.06
15629 H 66.35775933257895 52.034737771614004 82.2540110522421 H 0.0 **** 0.06
15630 H 66.81355308886802 51.29754592264397 83.80902069564735 H 0.0 **** 0.06
15631 C 34.985295647386295 30.408612162511687 45.65023381354578 C 0.0 **** -0.24
15632 H 36.03495723832398 30.255459362003585 45.901182335353724 H 0.0 **** 0.06
15633 H 34.487642917595025 30.928049390712147 46.46905009733706 H 0.0 **** 0.06
15634 H 34.50597544692178 29.442657428526992 45.487885275617444 H 0.0 **** 0.06
15635 H 34.914331443655215 31.007061497512048 44.741578264763774 H 0.0 **** 0.06
15636 C 43.358336153178016 101.86241234887214 97.99595495438723 C 0.0 **** -0.24
15637 H 43.22902053951799 100.86657126679432 98.41763646360701 H 0.0 **** 0.06
15638 H 44.421431631002434 102.0670543708226 97.86650968598224 H 0.0 **** 0.06
15639 H 42.92545199660972 102.60076905801398 98.67051113249903 H 0.0 **** 0.06
15640 H 42.857938598956565 101.91590725977827 97.02859151401717 H 0.0 **** 0.06
15641 C 56.952090438105245 106.70714403498278 103.93402053165775 C 0.0 **** -0.24
15642 H 55.92737036998888 106.9139465016172 104.24315468922333 H 0.0 **** 0.06
15643 H 56.94669654029094 106.23582907893905 102.95145171485547 H 0.0 **** 0.06
15644 H 57.42221912250876 106.03945401483116 104.6557063509542 H 0.0 **** 0.06
15645 H 57.51132494889139 107.64166560807706 103.88552723947356 H 0.0 **** 0.06
15646 C 100.65953579702946 55.91672498895945 109.92914634444948 C 0.0 **** -0.24
15647 H 101.03574589159214 55.992676453952 110.94913051339881 H 0.0 **** 0.06
15648 H 101.10665296601763 55.05058286753427 109.44137442162126 H 0.0 **** 0.06
15649 H 100.92077591043807 56.81941834181214 109.37690391406754 H 0.0 **** 0.06
15650 H 99.57548940968238 55.80365052456635 109.94981033304322 H 0.0 **** 0.06
15651 C 28.09728381970919 65.94644451424165 112.24989056099781 C 0.0 **** -0.24
15652 H 27.862965958002427 66.88229000365538 111.74243242843586 H 0.0 **** 0.06
15653 H 28.42851758085005 66.15896806065973 113.26763093725242 H 0.0 **** 0.06
15654 H 28.88989195695531 65.4296185395169 111.71016511284078 H 0.0 **** 0.06
15655 H 27.208137113895702 65.31780403517246 112.28166473801858 H 0.0 **** 0.06
15656 C 101.66116943541775 43.074577585027384 102.13200698532341 C 0.0 **** -0.24
15657 H 101.47443305968437 44.090258441445144 101.78605438238299 H 0.0 **** 0.06
15658 H 101.30825505924741 42.36499911449465 101.383245834842 H 0.0 **** 0.06
15659 H 101.13040391092176 42.906394636981304 103.06936224015175 H 0.0 **** 0.06
15660 H 102.73058545138565 42.9348705046944 102.2902621984766 H 0.0 **** 0.06
15661 C 60.59314626583341 52.18521685694199 96.50891588157111 C 0.0 **** -0.24
15662 H 61.40093440995969 51.49919608475108 96.25473054682041 H 0.0 **** 0.06
15663 H 60.65871295752885 52.44794019744376 97.56518757850603 H 0.0 **** 0.06
15664 H 59.63428325795678 51.70709276910853 96.31144330916075 H 0.0 **** 0.06
15665 H 60.68068226004735 53.088599816987596 95.90409925650476 H 0.0 **** 0.06
15666 C 21.690894848402024 102.3017456843516 91.23993833326071 C 0.0 **** -0.24
15667 H 20.826463371911217 101.86959413347785 90.73652437769903 H 0.0 **** 0.06
15668 H 21.35366627930172 102.94634015567777 92.05174327160734 H 0.0 **** 0.06
15669 H 22.270879679392237 102.88765368730577 90.52598954600569 H 0.0 **** 0.06
15670 H 22.312932334381983 101.50249412511818 91.64265745404484 H 0.0 **** 0.06
15671 C 15.081409109500441 45.37907420944689 79.97464333796833 C 0.0 **** -0.24
15672 H 14.731183924901472 44.60572626750072 80.6588572768728 H 0.0 **** 0.06
15673 H 15.878764641708841 44.97593123758717 79.35075051269453 H 0.0 **** 0.06
15674 H 15.459159904983522 46.225553860377296 80.54662920292947 H 0.0 **** 0.06
15675 H 14.255065881506198 45.70574684416432 79.34318291941238 H 0.0 **** 0.06
15676 C 23.0012247043731 5.109341860731746 2.01322767382905 C 0.0 **** -0.24
15677 H 22.119758901530417 4.467168528825681 1.9977059024339212 H 0.0 **** 0.06
15678 H 23.78677924045985 4.662710245537937 1.4034984924511207 H 0.0 **** 0.06
15679 H 23.35428555730323 5.217207284686111 3.0390846357408634 H 0.0 **** 0.06
15680 H 22.74220865355801 6.089660807170219 1.6129841852964262 H 0.0 **** 0.06
15681 C 78.61032305493896 48.052250472353755 69.52294477238394 C 0.0 **** -0.24
15682 H 78.10533609071169 48.656383945323334 70.27630011365329 H 0.0 **** 0.06
15683 H 79.43847831139996 48.61946928652503 69.09735446240595 H 0.0 **** 0.06
15684 H 77.90493430141527 47.790634822233116 68.73386849014472 H 0.0 **** 0.06
15685 H 78.99189023991966 47.141580278812484 69.98509376776369 H 0.0 **** 0.06
15686 C 87.7401560410566 111.83153472310079 111.08745509518869 C 0.0 **** -0.24
15687 H 88.6825353814321 111.39981567597087 110.74825557708357 H 0.0 **** 0.06
15688 H 86.97126128290506 111.66085329517085 110.33292068330111 H 0.0 **** 0.06
15689 H 87.86562664679329 112.90235418705953 111.24277445238555 H 0.0 **** 0.06
15690 H 87.44152244313335 111.36045849361591 112.02325500807392 H 0.0 **** 0.06
15691 C 0.6425090709620065 45.3501259695787 58.42725471084538 C 0.0 **** -0.24
15692 H 0.5120243380693807 44.73854029593474 59.3197574060004 H 0.0 **** 0.06
15693 H -0.3157607001414533 45.460804213602614 57.91932480852899 H 0.0 **** 0.06
15694 H 1.354835878486341 44.867594824642936 57.75685804283005 H 0.0 **** 0.06
15695 H 1.0200234082418262 46.33216323707637 58.71138864796898 H 0.0 **** 0.06
15696 C 68.22635663476512 2.82502354188299 15.048221492885688 C 0.0 **** -0.24
15697 H 67.4470825587344 2.0806056208720918 15.212179642075625 H 0.0 **** 0.06
15698 H 68.88754993880889 2.488078483200093 14.249739907645818 H 0.0 **** 0.06
15699 H 68.800761243936 2.957405404114171 15.965123767587414 H 0.0 **** 0.06
15700 H 67.7678970090883 3.773346504563971 14.765768334555872 H 0.0 **** 0.06
15701 C 61.05851496262966 49.000138616809984 35.47065024723619 C 0.0 **** -0.24
15702 H 59.98510929079748 48.88018357220605 35.625674708324055 H 0.0 **** 0.06
15703 H 61.52013794664623 48.01816111311632 35.361829955882314 H 0.0 **** 0.06
15704 H 61.49348438183392 49.514754756357846 36.327521434583275 H 0.0 **** 0.06
15705 H 61.230953989082764 49.586097436794276 34.56773029118699 H 0.0 **** 0.06
15706 C 108.27647006686914 82.90392598793011 69.95588033446231 C 0.0 **** -0.24
15707 H 108.00979450581269 82.01178116874328 69.38968060902201 H 0.0 **** 0.06
15708 H 109.31149290313544 82.82622520459273 70.2878858680354 H 0.0 **** 0.06
15709 H 107.6217466890028 82.99324502173201 70.82251738396411 H 0.0 **** 0.06
15710 H 108.1624507666561 83.78338408588769 69.32151333795161 H 0.0 **** 0.06
15711 C 73.67553888034564 29.846913092225407 28.94035176735872 C 0.0 **** -0.24
15712 H 74.06584670961033 28.986195198246378 29.483838584750856 H 0.0 **** 0.06
15713 H 72.59446182428181 29.751952359024358 28.837944467452417 H 0.0 **** 0.06
15714 H 74.13193162246134 29.888420625517085 27.95093161974637 H 0.0 **** 0.06
15715 H 73.9111819092411 30.759273046181477 29.48763599876918 H 0.0 **** 0.06
15716 C 39.62899227977418 5.201528425761836 20.85317331307229 C 0.0 **** -0.24
15717 H 39.44905231574961 5.2159231368886765 21.928109492429 H 0.0 **** 0.06
15718 H 39.64338731750041 6.2237155995940014 20.473696555566363 H 0.0 **** 0.06
15719 H 38.83369271824998 4.64184693217868 20.36024161570228 H 0.0 **** 0.06
15720 H 40.58780777157063 4.7255185960107156 20.650946185892366 H 0.0 **** 0.06
15721 C 9.633163231978557 50.198283670699915 29.750861142384935 C 0.0 **** -0.24
15722 H 9.424853799507261 50.48778352985061 28.72081774199026 H 0.0 **** 0.06
15723 H 8.716994430847166 49.840355801653736 30.22148605358538 H 0.0 **** 0.06
15724 H 10.011662311659734 51.06014586343241 30.300815159240273 H 0.0 **** 0.06
15725 H 10.381289024185406 49.40488751803451 29.76095073982782 H 0.0 **** 0.06
15726 C 9.016353029361852 8.136855982914767 95.96852552121467 C 0.0 **** -0.24
15727 H 9.359586939740794 8.511249922752569 96.93273972296078 H 0.0 **** 0.06
15728 H 7.992272813136012 7.7744007041188326 96.06269197577814 H 0.0 **** 0.06
15729 H 9.662373394559182 7.3206931923616025 95.6441285259844 H 0.0 **** 0.06
15730 H 9.05057066995947 8.94144592650602 95.23383743992744 H 0.0 **** 0.06
15731 C 97.2528855697912 89.76979087489252 51.30369969832976 C 0.0 **** -0.24
15732 H 97.6847996370123 89.49658738249369 52.26613278377282 H 0.0 **** 0.06
15733 H 96.91689651405196 88.8694903547376 50.78703070707952 H 0.0 **** 0.06
15734 H 98.00458808235015 90.27717260179244 50.6991746810648 H 0.0 **** 0.06
15735 H 96.40428958437988 90.4357375953183 51.462637585092736 H 0.0 **** 0.06
15736 C 22.928588871317046 68.71086061595744 36.494931564682076 C 0.0 **** -0.24
15737 H 22.48245845495441 69.70534947508258 36.488852999845165 H 0.0 **** 0.06
15738 H 23.45257106587664 68.54234923536703 35.55348478943171 H 0.0 **** 0.06
15739 H 22.14637642535064 67.96151735698254 36.613340681844306 H 0.0 **** 0.06
15740 H 23.634060945561473 68.63387765689961 37.322139007885085 H 0.0 **** 0.06
15741 C 17.32876299242592 10.027028384238463 105.40318754652094 C 0.0 **** -0.24
15742 H 16.83885785885511 9.918129208342783 104.43591546274013 H 0.0 **** 0.06
15743 H 16.594549773586692 10.329131381427835 106.1505041853195 H 0.0 **** 0.06
15744 H 18.108682580194362 10.78546158667541 105.3318788453173 H 0.0 **** 0.06
15745 H 17.77370351217413 9.07488283563542 105.69401436155124 H 0.0 **** 0.06
15746 C 35.14826370750521 95.47877519863789 25.03326187441911 C 0.0 **** -0.24
15747 H 34.648606113548 96.3901843005994 24.702231317471217 H 0.0 **** 0.06
15748 H 34.44527598430048 94.64636963122479 24.993378859186294 H 0.0 **** 0.06
15749 H 35.500677039861756 95.60936744658562 26.05594209920855 H 0.0 **** 0.06
15750 H 35.995118785918294 95.27110002691882 24.379518144368376 H 0.0 **** 0.06
15751 C 62.21229246137972 7.826943608795915 87.1101170167293 C 0.0 **** -0.24
15752 H 61.442506128908065 8.42347117116725 87.59962723687335 H 0.0 **** 0.06
15753 H 62.78754592171515 8.460084516540547 86.43505820286015 H 0.0 **** 0.06
15754 H 61.74334517363104 7.022414214967625 86.54326932310272 H 0.0 **** 0.06
15755 H 62.876538746906135 7.401355004765975 87.86297268740043 H 0.0 **** 0.06
15756 C 52.24476404145865 23.66264241062197 56.92565584681171 C 0.0 **** -0.24
15757 H 51.53212022725514 22.83704191499561 56.942362109613526 H 0.0 **** 0.06
15758 H 53.25713649051222 23.26995160754214 57.016986619299104 H 0.0 **** 0.06
15759 H 52.039321700451715 24.33590643756753 57.75698869190086 H 0.0 **** 0.06
15760 H 52.14906664315457 24.206105902664092 55.98553519295808 H 0.0 **** 0.06
15761 C 55.59578676346962 4.253317780724444 69.09693376994457 C 0.0 **** -0.24
15762 H 55.329095669057295 4.776981581915621 68.17845811920716 H 0.0 **** 0.06
15763 H 56.57572355424762 4.590691783808452 69.43544092028597 H 0.0 **** 0.06
15764 H 55.626694041217746 3.1795754139901504 68.9068849151912 H 0.0 **** 0.06
15765 H 54.85242510244987 4.465071648763768 69.86483680627944 H 0.0 **** 0.06
15766 C 21.371106501062513 61.188437134602886 34.419231592908005 C 0.0 **** -0.24
15767 H 20.58928338095228 61.913611895565886 34.19131138823403 H 0.0 **** 0.06
15768 H 22.295605231120987 61.71516880210182 34.65744847523479 H 0.0 **** 0.06
15769 H 21.531319073833572 60.54412845274032 33.55485515005225 H 0.0 **** 0.06
15770 H 21.066811436400258 60.58284387355922 35.27325603002373 H 0.0 **** 0.06
15771 C 99.06567069281991 27.678558868428354 9.25827608004225 C 0.0 **** -0.24
15772 H 98.24274799026068 26.98545604284825 9.433101969435043 H 0.0 **** 0.06
15773 H 99.65293341052944 27.78151738173859 10.171202955879025 H 0.0 **** 0.06
15774 H 98.66612370515182 28.651862666573543 8.971538618625914 H 0.0 **** 0.06
15775 H 99.69935414194168 27.295657567901827 8.459161449038433 H 0.0 **** 0.06
15776 C 39.944352238688566 27.091051284470012 68.8847181651343 C 0.0 **** -0.24
15777 H 40.97559289387746 26.741754795946377 68.84035572675015 H 0.0 **** 0.06
15778 H 39.53969908200526 26.90464057191818 69.87989116609404 H 0.0 **** 0.06
15779 H 39.347562173043684 26.556606744820385 68.14453972093193 H 0.0 **** 0.06
15780 H 39.91314483431694 28.15935423144495 68.67331514965363 H 0.0 **** 0.06
15781 C 79.74939080729027 6.897780381189136 5.948062743507705 C 0.0 **** -0.24
15782 H 79.50865965410065 6.2052303572317555 6.754629149489801 H 0.0 **** 0.06
15783 H 80.0069305458519 7.870250645585145 6.370160334260731 H 0.0 **** 0.06
15784 H 78.88607268887958 7.0038388095128425 5.291128327120703 H 0.0 **** 0.06
15785 H 80.59477923248448 6.512804474896086 5.378928947269145 H 0.0 **** 0.06
15786 C 28.523053362871394 77.37683382493677 111.71370735965488 C 0.0 **** -0.24
15787 H 28.36224835464725 78.28636563008482 111.13532080373022 H 0.0 **** 0.06
15788 H 29.115748680049535 77.60983290492734 112.59971369154357 H 0.0 **** 0.06
15789 H 29.053709513179427 76.64688591712584 111.10298856042803 H 0.0 **** 0.06
15790 H 27.56129866145517 76.96570433449901 112.01830997162278 H 0.0 **** 0.06
15791 C 72.04152820541862 99.50989376283115 53.52751331630818 C 0.0 **** -0.24
15792 H 71.10313902449383 99.27983323669616 53.023360299115986 H 0.0 **** 0.06
15793 H 72.31253590375053 100.54746838038 53.33287745610205 H 0.0 **** 0.06
15794 H 72.82602931556227 98.85256124497158 53.153603814697405 H 0.0 **** 0.06
15795 H 71.92297071848932 99.36062810753478 54.60165873981207 H 0.0 **** 0.06
15796 C 96.85954568313832 67.81689311477416 70.0381735018116 C 0.0 **** -0.24
15797 H 97.48959032058588 68.4524613770318 69.41521348828871 H 0.0 **** 0.06
15798 H 95.97697416398 68.37558736587371 70.35003348622107 H 0.0 **** 0.06
15799 H 97.41941129747451 67.50153286780747 70.91859089968082 H 0.0 **** 0.06
15800 H 96.55246815277852 66.94039731237706 69.46923169232733 H 0.0 **** 0.06
15801 C 40.5761676572959 85.98697850483649 97.13889262807021 C 0.0 **** -0.24
15802 H 40.81144294698489 85.16475095187329 97.81507367559203 H 0.0 **** 0.06
15803 H 39.65978194045026 85.75770996958272 96.59362972494074 H 0.0 **** 0.06
15804 H 41.394753282422194 86.12284874093248 96.43346145940274 H 0.0 **** 0.06
15805 H 40.437313769759406 86.90146073321034 97.71559466892637 H 0.0 **** 0.06
15806 C 48.02801816600936 21.86868289289832 5.856034815497878 C 0.0 **** -0.24
15807 H 48.491038262586585 21.41507176952814 4.979602422816754 H 0.0 **** 0.06
15808 H 47.05899176985605 22.284461621152957 5.579996265301332 H 0.0 **** 0.06
15809 H 48.67041663323752 22.6645874420972 6.23542598512816 H 0.0 **** 0.06
15810 H 47.89284848672435 21.111779137661415 6.628046603154559 H 0.0 **** 0.06
15811 C 12.35640880404734 5.952884368399253 87.53555011819569 C 0.0 **** -0.24
15812 H 11.298573011873327 6.153315272962587 87.70570969422383 H 0.0 **** 0.06
15813 H 12.52057775448445 5.743398974547503 86.47862873761218 H 0.0 **** 0.06
15814 H 12.663396845418134 5.0926102703826075 88.12932207695076 H 0.0 **** 0.06
15815 H 12.942319635313716 6.824470805769266 87.82909913918249 H 0.0 **** 0.06
15816 C 93.43253889968074 95.33253267552456 22.48223439743748 C 0.0 **** -0.24
15817 H 93.2527868647951 95.80432579447367 21.516076613636756 H 0.0 **** 0.06
15818 H 94.49074263953102 95.40987281146195 22.732241893594164 H 0.0 **** 0.06
15819 H 93.14619811799096 94.28197511858201 22.432654492125266 H 0.0 **** 0.06
15820 H 92.84042797640589 95.83395697758058 23.24796459039436 H 0.0 **** 0.06
15821 C 67.56712314583709 101.2821277973853 74.14051983897593 C 0.0 **** -0.24
15822 H 67.71041061236883 100.53355725771726 73.36170522606835 H 0.0 **** 0.06
15823 H 68.45969649025164 101.33306040097455 74.76514785658469 H 0.0 **** 0.06
15824 H 66.70838062997021 101.00817234812928 74.75403604721646 H 0.0 **** 0.06
15825 H 67.38928951375013 102.2547082754221 73.68047325015573 H 0.0 **** 0.06
15826 C 5.062261709997728 25.905866009218258 23.564498201605943 C 0.0 **** -0.24
15827 H 5.420911253558941 26.26540443318511 22.600989036590022 H 0.0 **** 0.06
15828 H 5.124921310194736 26.7098495622855 24.29790505745973 H 0.0 **** 0.06
15829 H 5.675402301533893 25.066513881418533 23.89130542655323 H 0.0 **** 0.06
15830 H 4.025075654498352 25.58213867562314 23.468940997525294 H 0.0 **** 0.06
15831 C 31.54396453195986 14.938977784725836 38.58196539020983 C 0.0 **** -0.24
15832 H 30.880974243050574 14.342990070122454 39.210168370106445 H 0.0 **** 0.06
15833 H 31.45921067490596 14.60563555157141 37.547530209343265 H 0.0 **** 0.06
15834 H 32.57229918220921 14.816392010445924 38.92070115138378 H 0.0 **** 0.06
15835 H 31.260969085314997 15.989335558130165 38.65035040123041 H 0.0 **** 0.06
15836 C 89.47180270558442 84.53975108144044 81.0503509464636 C 0.0 **** -0.24
15837 H 90.5276582138325 84.28071832247667 81.13695141065867 H 0.0 **** 0.06
15838 H 88.86467540159597 83.72585260169268 81.4464444720563 H 0.0 **** 0.06
15839 H 89.22278829772858 84.70231049188408 80.00136110247831 H 0.0 **** 0.06
15840 H 89.27445541744692 85.44985945582152 81.61607184760345 H 0.0 **** 0.06
15841 C 52.70971163616758 75.63392238293184 21.336617804071732 C 0.0 **** -0.24
15842 H 52.1157818520839 75.26060192903543 20.501910859840624 H 0.0 **** 0.06
15843 H 52.68447492597028 76.7231489091755 21.341619252279997 H 0.0 **** 0.06
15844 H 53.740121919030116 75.29348442223014 21.229785750381364 H 0.0 **** 0.06
15845 H 52.29785614729309 75.25555023493308 22.27206312539847 H 0.0 **** 0.06
15846 C 88.12681464120445 44.4974371841608 35.37600886431097 C 0.0 **** -0.24
15847 H 89.07834024263758 44.553588745541965 35.904155990710684 H 0.0 **** 0.06
15848 H 87.92947050214366 45.44917447216535 34.88124336761329 H 0.0 **** 0.06
15849 H 87.32858496491946 44.2848488877083 36.08728166676178 H 0.0 **** 0.06
15850 H 88.17158306032576 43.70335374926317 34.63136088143666 H 0.0 **** 0.06
15851 C 49.779430963902286 7.570594449480666 10.138499565887287 C 0.0 **** -0.24
15852 H 49.96522652820539 7.478965904406008 9.067926980317623 H 0.0 **** 0.06
15853 H 48.975522282373326 8.287978664142686 10.307352119243117 H 0.0 **** 0.06
15854 H 50.685907072430574 7.915149038886666 10.6350773816566 H 0.0 **** 0.06
15855 H 49.48987472590419 6.599514708306197 10.540998948623166 H 0.0 **** 0.06
15856 C 93.20342689224765 39.17735247803918 16.31972666311043 C 0.0 **** -0.24
15857 H 92.50884342442615 38.7627386059778 17.04979343420092 H 0.0 **** 0.06
15858 H 94.19379105942724 38.75110481538019 16.478802493292818 H 0.0 **** 0.06
15859 H 93.25030018289615 40.259545182263 16.437896836447692 H 0.0 **** 0.06
15860 H 92.85955611187447 38.936488279305195 15.314230930911322 H 0.0 **** 0.06
15861 C 3.9379266754239666 44.41823207522566 96.1463280516777 C 0.0 **** -0.24
15862 H 4.578593340238697 44.0000885659676 96.92324675091416 H 0.0 **** 0.06
15863 H 3.656428058897802 43.632513481517925 95.44607228060724 H 0.0 **** 0.06
15864 H 4.476853146886455 45.203239871065755 95.61616355953572 H 0.0 **** 0.06
15865 H 3.0413663610666646 44.83787649409893 96.60228368324627 H 0.0 **** 0.06
15866 C 48.947212961362965 88.82078298094319 65.7406157205497 C 0.0 **** -0.24
15867 H 49.178166974255646 87.83838246915641 65.32796828801617 H 0.0 **** 0.06
15868 H 47.86575560894639 88.94957057792328 65.78551719382517 H 0.0 **** 0.06
15869 H 49.379118817752044 89.59199974253764 65.10340116840783 H 0.0 **** 0.06
15870 H 49.36557460216824 88.90015383066887 66.74362875804334 H 0.0 **** 0.06
15871 C 42.67329911934755 108.15883098095537 45.882008689806035 C 0.0 **** -0.24
15872 H 43.308650834881206 108.95683207819064 45.49609171659179 H 0.0 **** 0.06
15873 H 42.70723805058202 108.16255233308277 46.97176450005672 H 0.0 **** 0.06
15874 H 43.03156637677401 107.19851148152009 45.509605029450256 H 0.0 **** 0.06
15875 H 41.64720790237524 108.31812467373311 45.549036047304234 H 0.0 **** 0.06
15876 C 14.770740878125395 86.74662866668655 9.402846639913207 C 0.0 **** -0.24
15877 H 13.853499309627665 87.05530924857152 9.904067726967696 H 0.0 **** 0.06
15878 H 14.855639273261204 87.26763381958622 8.449021550183915 H 0.0 **** 0.06
15879 H 14.74400527197028 85.67039660617266 9.22866507205515 H 0.0 **** 0.06
15880 H 15.627672634504421 86.99260993469267 10.029365217876745 H 0.0 **** 0.06
15881 C 47.30959993100197 40.88062565376396 74.98956165332106 C 0.0 **** -0.24
15882 H 47.087730303036466 41.87679622532187 74.60704049179634 H 0.0 **** 0.06
15883 H 47.127164633893614 40.855554417870394 76.06408536569492 H 0.0 **** 0.06
15884 H 48.354186117541616 40.64103741002418 74.79131294940132 H 0.0 **** 0.06
15885 H 46.66916710503057 40.15044232744708 74.49401494546296 H 0.0 **** 0.06
15886 C 37.69982563186517 98.45344436434621 53.44665290172783 C 0.0 **** -0.24
15887 H 38.76064529778404 98.57426021244348 53.23121739537881 H 0.0 **** 0.06
15888 H 37.41830821574621 99.11145195875014 54.269400371276376 H 0.0 **** 0.06
15889 H 37.50056016342205 97.4181083875716 53.724929980562656 H 0.0 **** 0.06
15890 H 37.117580796801974 98.71030808127736 52.5611019803993 H 0.0 **** 0.06
15891 C 26.514987600408944 50.575398292049556 84.66701406934607 C 0.0 **** -0.24
15892 H 27.304316804680838 49.94155747349575 85.07138224984621 H 0.0 **** 0.06
15893 H 26.272684262473376 50.25244916555434 83.65385395212945 H 0.0 **** 0.06
15894 H 26.85316605622623 51.611371550520204 84.64868048487833 H 0.0 **** 0.06
15895 H 25.6279289541921 50.494563251958624 85.29609761211233 H 0.0 **** 0.06
15896 C 43.96573193441742 90.76497678571872 94.9748245415453 C 0.0 **** -0.24
15897 H 43.9498303767397 90.02720506625664 95.77805334631267 H 0.0 **** 0.06
15898 H 43.238627469567575 90.48575507096547 94.2122094826905 H 0.0 **** 0.06
15899 H 44.96178871601944 90.79948480953772 94.53356104894843 H 0.0 **** 0.06
15900 H 43.713011974830806 91.74541521839745 95.37739806256997 H 0.0 **** 0.06
15901 C 28.57144623923105 35.01378644548771 72.69849620596725 C 0.0 **** -0.24
15902 H 28.0916345792553 34.349721299617784 71.98025767731778 H 0.0 **** 0.06
15903 H 28.251024546724608 34.751076011501596 73.706866464825 H 0.0 **** 0.06
15904 H 28.290007569688868 36.0444513872408 72.48428509289832 H 0.0 **** 0.06
15905 H 29.654453436038068 34.90964356829636 72.62150171338493 H 0.0 **** 0.06
15906 C 26.984713034793998 92.26599946337774 78.08222153576571 C 0.0 **** -0.24
15907 H 26.40521045605439 92.74260496323382 77.29132244558787 H 0.0 **** 0.06
15908 H 28.044294532377506 92.3077245205154 77.83103350278105 H 0.0 **** 0.06
15909 H 26.675115392837483 91.22597861323277 78.18372180028999 H 0.0 **** 0.06
15910 H 26.813262402510844 92.78968255696194 79.02310735956686 H 0.0 **** 0.06
15911 C 22.761336976985632 34.43914508695238 71.86501870438806 C 0.0 **** -0.24
15912 H 23.33007691427278 34.14054014864573 72.745017172155 H 0.0 **** 0.06
15913 H 21.699409487263893 34.46517486816023 72.11191324883245 H 0.0 **** 0.06
15914 H 22.93045250071566 33.72161239950498 71.06230819961442 H 0.0 **** 0.06
15915 H 23.084452422299023 35.4289571381716 71.54224957046586 H 0.0 **** 0.06
15916 C 29.831383989499585 13.20515016835273 18.502512609142286 C 0.0 **** -0.24
15917 H 30.190909902425204 12.458366839698442 17.795411413035197 H 0.0 **** 0.06
15918 H 29.674736494256166 14.150711849633353 17.98369564578539 H 0.0 **** 0.06
15919 H 30.567808004854697 13.341411749339528 19.293730514278252 H 0.0 **** 0.06
15920 H 28.889570474038322 12.868827045130502 18.93743273451537 H 0.0 **** 0.06
15921 C 65.07816348291973 100.07165084201199 85.37767742587263 C 0.0 **** -0.24
15922 H 64.81708140545572 101.0931282886757 85.65489463859464 H 0.0 **** 0.06
15923 H 66.02150735884277 99.79684439655927 85.8487061857085 H 0.0 **** 0.06
15924 H 65.17825551793604 100.00472700729739 84.29454855552456 H 0.0 **** 0.06
15925 H 64.29254234783502 99.393302222989 85.7131682237897 H 0.0 **** 0.06
15926 C 75.63809605917439 81.6694358003648 36.81676664690855 C 0.0 **** -0.24
15927 H 76.15981048454194 82.62590533424253 36.79153861634444 H 0.0 **** 0.06
15928 H 76.17737982182737 80.97871922031459 37.46466478365306 H 0.0 **** 0.06
15929 H 75.58522991303232 81.25766222096757 35.8092186104673 H 0.0 **** 0.06
15930 H 74.62923895869733 81.81653674799236 37.202198930600815 H 0.0 **** 0.06
15931 C 6.168112945286639 7.402561437838864 99.54784614228916 C 0.0 **** -0.24
15932 H 6.639028796997474 8.324572063265608 99.20731854996276 H 0.0 **** 0.06
15933 H 6.661152499124897 7.057545308011621 100.45613970857767 H 0.0 **** 0.06
15934 H 6.2589746357884675 6.641362709874059 98.77254421565294 H 0.0 **** 0.06
15935 H 5.113542020790794 7.587341786006498 99.7532355224007 H 0.0 **** 0.06
15936 C 89.49026439278595 76.05470584671573 0.12480749695436089 C 0.0 **** -0.24
15937 H 90.13294738260396 75.58784865386974 -0.6224336940151716 H 0.0 **** 0.06
15938 H 88.45747020022142 75.74649472367253 -0.04078992032577844 H 0.0 **** 0.06
15939 H 89.56383508597156 77.13857659987536 0.04075462616867753 H 0.0 **** 0.06
15940 H 89.80685278439051 75.74491826334699 1.1206854139924758 H 0.0 **** 0.06
15941 C 29.160138768158703 107.25647125236135 16.388066946445647 C 0.0 **** -0.24
15942 H 29.66181720364284 106.31018374352712 16.18373845492852 H 0.0 **** 0.06
15943 H 29.008501448449266 107.36103961845983 17.46240300706188 H 0.0 **** 0.06
15944 H 28.195514104145246 107.27256215235334 15.881737335402999 H 0.0 **** 0.06
15945 H 29.775693949862898 108.07935875257806 16.02512707329144 H 0.0 **** 0.06
15946 C 99.02363641317623 20.55287299230571 66.99193744064931 C 0.0 **** -0.24
15947 H 98.48913010484057 20.21912929328397 66.10259806000559 H 0.0 **** 0.06
15948 H 98.62840071410261 21.517299385812635 67.3123901132816 H 0.0 **** 0.06
15949 H 100.0842079432129 20.65367283362241 66.7615360326455 H 0.0 **** 0.06
15950 H 98.8922340628639 19.822224744452 67.78923153668453 H 0.0 **** 0.06
15951 C 2.836420381754465 8.391536620091529 49.759993369092506 C 0.0 **** -0.24
15952 H 2.901243702183379 9.22790127131293 49.06366548359126 H 0.0 **** 0.06
15953 H 2.710141508273452 8.771006733122661 50.773046359992506 H 0.0 **** 0.06
15954 H 3.7518806081666014 7.801448861278487 49.70331463596701 H 0.0 **** 0.06
15955 H 1.9842371165527908 7.765274858408091 49.496719258840216 H 0.0 **** 0.06
15956 C 16.857153127816197 15.474953640828346 36.41769437461656 C 0.0 **** -0.24
15957 H 17.69179425966029 16.068165841771986 36.79124604895131 H 0.0 **** 0.06
15958 H 16.565958159015818 14.742572560891574 37.17153448373409 H 0.0 **** 0.06
15959 H 17.158718229099623 14.957441371878588 35.50665981583791 H 0.0 **** 0.06
15960 H 16.01348969640523 16.129834763617623 36.20230853875242 H 0.0 **** 0.06
15961 C 76.73284174975336 83.64179137972312 76.91228608350002 C 0.0 **** -0.24
15962 H 76.19491491003441 82.93691188547282 77.54645721174484 H 0.0 **** 0.06
15963 H 76.88616508965438 83.20142277112882 75.92746742698955 H 0.0 **** 0.06
15964 H 77.69908117011832 83.87032862967021 77.3629750524567 H 0.0 **** 0.06
15965 H 76.15167356872925 84.55863628236182 76.81357255991975 H 0.0 **** 0.06
15966 C 75.77231069560929 100.81959973459664 43.22727668989694 C 0.0 **** -0.24
15967 H 75.21073978058041 99.96030261189051 43.59504700326005 H 0.0 **** 0.06
15968 H 76.7668855060952 100.49773966798824 42.91760353028229 H 0.0 **** 0.06
15969 H 75.8612367812984 101.56168574178722 44.02099825742829 H 0.0 **** 0.06
15970 H 75.25073452208181 101.25786885972968 42.37751510458048 H 0.0 **** 0.06
15971 C 71.005595480907 0.9160130376682787 24.744846605867053 C 0.0 **** -0.24
15972 H 71.07642044083534 1.086063011126015 23.670656583055575 H 0.0 **** 0.06
15973 H 71.93605084688971 1.2214175191580097 25.223355015287552 H 0.0 **** 0.06
15974 H 70.83146542617015 -0.14432695196720147 24.933627811650695 H 0.0 **** 0.06
15975 H 70.17862670491542 1.4984588391805005 25.151624123804595 H 0.0 **** 0.06
15976 C 78.88349961184306 56.00044589945466 32.621164823104266 C 0.0 **** -0.24
15977 H 78.80004304509339 56.50173084335481 33.58518856104337 H 0.0 **** 0.06
15978 H 78.76070737969627 56.72997674798415 31.81995619712967 H 0.0 **** 0.06
15979 H 78.10937162501622 55.23805720900859 32.539907957003095 H 0.0 **** 0.06
15980 H 79.86479989270481 55.531691372171025 32.53940656192634 H 0.0 **** 0.06
15981 C 25.286535713532203 38.867782895653605 51.40428194291542 C 0.0 **** -0.24
15982 H 26.24726422226783 39.176753410098435 51.81592661090183 H 0.0 **** 0.06
15983 H 24.59860612396355 39.714007361644015 51.41273753710027 H 0.0 **** 0.06
15984 H 24.87645425095792 38.059066848498965 52.00880565001672 H 0.0 **** 0.06
15985 H 25.425938880520448 38.52071823723434 50.380058180223294 H 0.0 **** 0.06
15986 C 77.22161227897669 27.054601369933607 67.90861080983305 C 0.0 **** -0.24
15987 H 76.50973055019438 27.54314997080803 67.24364687709215 H 0.0 **** 0.06
15988 H 77.30856672265341 26.00226919595528 67.63732804978801 H 0.0 **** 0.06
15989 H 76.87096513910973 27.136996259793193 68.93823897366343 H 0.0 **** 0.06
15990 H 78.19496539918765 27.53591544838889 67.81625918325472 H 0.0 **** 0.06
15991 C 79.20244502486739 16.408079777844875 42.29763744094885 C 0.0 **** -0.24
15992 H 79.99679357092083 17.131871635686565 42.48402469588098 H 0.0 **** 0.06
15993 H 79.54986864088733 15.410522166755015 42.56861732697532 H 0.0 **** 0.06
15994 H 78.93668967382479 16.425747069826002 41.24100680046769 H 0.0 **** 0.06
15995 H 78.32938180700106 16.665676495006124 42.896721662319955 H 0.0 **** 0.06
15996 C 99.50752630863656 39.14953836073889 14.613185566407651 C 0.0 **** -0.24
15997 H 100.43749569557991 38.86589989306722 15.105748798820798 H 0.0 **** 0.06
15998 H 99.31422427585846 38.468894082593906 13.78335838810355 H 0.0 **** 0.06
15999 H 99.59228497442751 40.16899611251688 14.235177203506765 H 0.0 **** 0.06
16000 H 98.6865650307634 39.09391853286343 15.327198406379694 H 0.0 **** 0.06
16001 C 49.66249512713656 37.04767841557202 37.034897238655816 C 0.0 **** -0.24
16002 H 49.13416120845301 37.924529288883235 37.408667467124076 H 0.0 **** 0.06
16003 H 50.32779120797623 37.34421513417999 36.223047143495876 H 0.0 **** 0.06
16004 H 48.94085776425943 36.318909957643854 36.666348167746094 H 0.0 **** 0.06
16005 H 50.24719653831408 36.60529109080019 37.84138970560102 H 0.0 **** 0.06
16006 C 19.628494923499602 31.319895760230338 8.869841085645845 C 0.0 **** -0.24
16007 H 20.192855776462466 30.88208260504814 8.047588232012032 H 0.0 **** 0.06
16008 H 20.126950087864202 31.093731752834003 9.81354909087085 H 0.0 **** 0.06
16009 H 18.621287508693456 30.90353735982194 8.882658613839226 H 0.0 **** 0.06
16010 H 19.572966868291758 32.4005937946618 8.737989659033502 H 0.0 **** 0.06
16011 C 79.97117413009553 77.73993966149865 49.202544218031875 C 0.0 **** -0.24
16012 H 80.72788715775269 77.15754063719947 49.728477842532826 H 0.0 **** 0.06
16013 H 79.62283675979637 77.18114879562887 48.33331047847307 H 0.0 **** 0.06
16014 H 80.40272550592434 78.68657181596905 48.8777991685495 H 0.0 **** 0.06
16015 H 79.13229010386564 77.93256466304834 49.87101004730375 H 0.0 **** 0.06
16016 C 33.296429248740765 109.83300112456195 60.980274459210904 C 0.0 **** -0.24
16017 H 32.488196266334654 109.17497633395337 61.29783099396275 H 0.0 **** 0.06
16018 H 33.3412572517945 110.69839478101449 61.641755131792024 H 0.0 **** 0.06
16019 H 33.11404415798275 110.16599661087147 59.95811051754458 H 0.0 **** 0.06
16020 H 34.24224769901011 109.29374121111113 61.02251828745284 H 0.0 **** 0.06
16021 C 107.00778586338978 1.0607335382581198 105.56201879422903 C 0.0 **** -0.24
16022 H 106.0808728754912 0.5188740876032512 105.37041212121414 H 0.0 **** 0.06
16023 H 107.8530882870806 0.4675880893402393 105.21120152846726 H 0.0 **** 0.06
16024 H 107.10872248261236 1.2400892817694 106.63274553160895 H 0.0 **** 0.06
16025 H 106.98767083172197 2.013345516922385 105.0333240306561 H 0.0 **** 0.06
16026 C 46.17670430907293 47.19466151387564 59.46942085112613 C 0.0 **** -0.24
16027 H 46.53045532269503 46.672344211478325 60.35899283429177 H 0.0 **** 0.06
16028 H 46.91328833281278 47.940405601653296 59.17022672155491 H 0.0 **** 0.06
16029 H 45.228879714750406 47.686024308678356 59.69029085763111 H 0.0 **** 0.06
16030 H 46.034999380704576 46.47803093394315 58.66040063025878 H 0.0 **** 0.06
16031 C 109.36874978165193 76.92370998304273 26.698370196348364 C 0.0 **** -0.24
16032 H 110.18099511224352 76.28785307469087 26.346063641020336 H 0.0 **** 0.06
16033 H 109.44769907564623 77.04719853746326 27.778482216857753 H 0.0 **** 0.06
16034 H 108.41300186059249 76.46076378438227 26.452990670839426 H 0.0 **** 0.06
16035 H 109.43627329132264 77.89841607215237 26.21459955235332 H 0.0 **** 0.06
16036 C 69.39187032428362 91.33100837879144 19.518152204273488 C 0.0 **** -0.24
16037 H 70.27835664332727 91.7870131714742 19.95955910872831 H 0.0 **** 0.06
16038 H 69.69031872701328 90.48817602182814 18.89385690561822 H 0.0 **** 0.06
16039 H 68.87010284887481 92.0684033645341 18.9078664142258 H 0.0 **** 0.06
16040 H 68.73088078980038 90.98033530223756 20.310829707958383 H 0.0 **** 0.06
16041 C 62.46271102025859 53.19455846672375 82.38220380540167 C 0.0 **** -0.24
16042 H 62.442813686875304 52.431130804997224 83.15994328028458 H 0.0 **** 0.06
16043 H 61.68635093351558 53.93438194020706 82.5798365251558 H 0.0 **** 0.06
16044 H 62.2835120023552 52.73065413309544 81.41296606690864 H 0.0 **** 0.06
16045 H 63.43788955001687 53.68201482667027 82.37745504748361 H 0.0 **** 0.06
16046 C 47.802800373307555 59.239523471567566 20.954565000628065 C 0.0 **** -0.24
16047 H 48.82588308654482 59.398281105554645 21.29629325232787 H 0.0 **** 0.06
16048 H 47.689353524342955 58.20941482894864 20.615838824896855 H 0.0 **** 0.06
16049 H 47.5854582432 59.918890819049125 20.130031905223262 H 0.0 **** 0.06
16050 H 47.11125461863272 59.43046337398971 21.77550339214875 H 0.0 **** 0.06
16051 C 4.220788763287231 108.41011543950552 72.74636003403151 C 0.0 **** -0.24
16052 H 3.645590030688169 107.534742466571 73.0496668490789 H 0.0 **** 0.06
16053 H 5.20460923306328 108.37854980404478 73.21318463825816 H 0.0 **** 0.06
16054 H 3.697430037495309 109.31455071604412 73.05866908050666 H 0.0 **** 0.06
16055 H 4.332589102844366 108.41241818912297 71.66160944854292 H 0.0 **** 0.06
16056 C 78.91982753313368 64.2133824242323 5.419306767792648 C 0.0 **** -0.24
16057 H 79.89611920243308 64.16717094815516 5.900436053795829 H 0.0 **** 0.06
16058 H 78.99126554887951 63.80289731329384 4.411916579113267 H 0.0 **** 0.06
16059 H 78.58950168673667 65.2510150773357 5.366328182196128 H 0.0 **** 0.06
16060 H 78.2008238637101 63.632033866012875 5.998026100413028 H 0.0 **** 0.06
16061 C 76.53197103233782 89.18702271561304 21.237168427910632 C 0.0 **** -0.24
16062 H 77.4995207693159 89.02869523780089 21.71400942239225 H 0.0 **** 0.06
16063 H 75.85884770519203 88.37152585153709 21.503683532256872 H 0.0 **** 0.06
16064 H 76.66017101702673 89.21468444555401 20.154978058524392 H 0.0 **** 0.06
16065 H 76.11028178062563 90.13277948968516 21.57740170852844 H 0.0 **** 0.06
16066 C 108.71443052979727 110.36796219217032 41.63986168289827 C 0.0 **** -0.24
16067 H 108.20076962287892 110.80427340755504 40.782427452294 H 0.0 **** 0.06
16068 H 108.71556689606807 111.08194485178291 42.46368622756293 H 0.0 **** 0.06
16069 H 109.74086840361105 110.12842014184665 41.364839499480155 H 0.0 **** 0.06
16070 H 108.1980699442665 109.4582765584874 41.94755832692201 H 0.0 **** 0.06
16071 C 82.61594190687339 109.97908065486892 99.9272299836644 C 0.0 **** -0.24
16072 H 83.68055216922363 110.00789920503505 99.69186865237083 H 0.0 **** 0.06
16073 H 82.22021062832886 110.99392000538727 99.94378783081399 H 0.0 **** 0.06
16074 H 82.47362053919892 109.516768810968 100.90433377138999 H 0.0 **** 0.06
16075 H 82.09278440615049 109.39554888287562 99.16974382290482 H 0.0 **** 0.06
16076 C 70.5658626436923 8.765507562288036 29.39306995783886 C 0.0 **** -0.24
16077 H 71.03021416329213 9.708425539622255 29.102665416221413 H 0.0 **** 0.06
16078 H 69.50883213807333 8.785853618049543 29.127004248851136 H 0.0 **** 0.06
16079 H 70.66774059595235 8.626709642599735 30.468971142549663 H 0.0 **** 0.06
16080 H 71.0563200758798 7.9433322631441 28.871732556192995 H 0.0 **** 0.06
16081 C 19.90675499194607 89.64001478832438 54.97182026811353 C 0.0 **** -0.24
16082 H 20.859341517812684 89.20713856564964 55.27561858807829 H 0.0 **** 0.06
16083 H 19.117091141675473 88.89687558848547 55.08373781366819 H 0.0 **** 0.06
16084 H 19.96564971236778 89.95353403499797 53.929418954619706 H 0.0 **** 0.06
16085 H 19.684489902732338 90.50396571879043 55.59933241431091 H 0.0 **** 0.06
16086 C 102.27254726650813 76.93125429010882 101.74329681588469 C 0.0 **** -0.24
16087 H 103.17097734057626 76.31330103950768 101.73898101057318 H 0.0 **** 0.06
16088 H 102.36796984158383 77.7040354469234 102.5059108681516 H 0.0 **** 0.06
16089 H 101.40488313509655 76.30849476875628 101.96113832852038 H 0.0 **** 0.06
16090 H 102.14929396115969 77.3976719891902 100.76539825540598 H 0.0 **** 0.06
16091 C 107.48140998574797 44.79135324158723 23.721212727331164 C 0.0 **** -0.24
16092 H 106.44914664644261 44.775473546111186 24.072066927223005 H 0.0 **** 0.06
16093 H 107.8313554574666 43.77002473766237 23.57587324922872 H 0.0 **** 0.06
16094 H 108.10813291757472 45.28936906898994 24.461697061876976 H 0.0 **** 0.06
16095 H 107.53533366856277 45.33308047566122 22.776881624392615 H 0.0 **** 0.06
16096 C 78.0876324013542 71.03073557241504 41.704301360948506 C 0.0 **** -0.24
16097 H 77.2394959295496 71.57523359987275 42.11995366769125 H 0.0 **** 0.06
16098 H 78.30408475545221 71.40544539160211 40.70396276322719 H 0.0 **** 0.06
16099 H 77.84700477452202 69.9690242342277 41.65214050261147 H 0.0 **** 0.06
16100 H 78.95948323015779 71.17591679680865 42.343297459809186 H 0.0 **** 0.06
16101 C 97.58115848319241 51.17319217962087 13.43195216680725 C 0.0 **** -0.24
16102 H 97.54622883930077 50.26525637384107 12.830186548953876 H 0.0 **** 0.06
16103 H 97.87172079524953 52.01528989574475 12.802939104962704 H 0.0 **** 0.06
16104 H 98.30955829515574 51.05054443960978 14.232635972152536 H 0.0 **** 0.06
16105 H 96.5970853956012 51.36231879201226 13.861280356571655 H 0.0 **** 0.06
16106 C 83.16546303908137 70.98853488750248 44.27192479710183 C 0.0 **** -0.24
16107 H 84.11666651313388 71.4978781904064 44.42487809943839 H 0.0 **** 0.06
16108 H 82.88695005725563 70.45777587433398 45.1821477150325 H 0.0 **** 0.06
16109 H 83.26128885703363 70.27710659727654 43.451451389776366 H 0.0 **** 0.06
16110 H 82.3965314710234 71.7215378671265 44.02832624800871 H 0.0 **** 0.06
16111 C 58.5286686805311 62.74808598428996 112.14574329194542 C 0.0 **** -0.24
16112 H 58.94865686035081 62.81087955950096 113.1498833794691 H 0.0 **** 0.06
16113 H 58.87903085869522 61.83567408694566 111.6629563032629 H 0.0 **** 0.06
16114 H 58.84682604367157 63.61320839666473 111.56402472508351 H 0.0 **** 0.06
16115 H 57.440637078175996 62.73179478060146 112.20814690788947 H 0.0 **** 0.06
16116 C 2.335107017010335 45.71013615320226 43.87387777224265 C 0.0 **** -0.24
16117 H 2.110335474007483 44.839590382697196 43.25657778034679 H 0.0 **** 0.06
16118 H 3.076191018294937 46.32950522740276 43.36927812367287 H 0.0 **** 0.06
16119 H 2.728834599744733 45.38177967514733 44.835509184822484 H 0.0 **** 0.06
16120 H 1.4246915359640733 46.287418087762006 44.032198829190605 H 0.0 **** 0.06
16121 C 54.35444310567351 6.387181769770464 72.84276342377302 C 0.0 **** -0.24
16122 H 54.66772202338612 6.817554691068443 73.79434311117598 H 0.0 **** 0.06
16123 H 53.53433194471802 6.97528275327738 72.43075940476734 H 0.0 **** 0.06
16124 H 54.02383140334487 5.361307904742853 73.00075084235311 H 0.0 **** 0.06
16125 H 55.19463831044416 6.395776453253191 72.1472013231924 H 0.0 **** 0.06
16126 C 37.11600380751281 20.90307335254596 38.058930992875446 C 0.0 **** -0.24
16127 H 36.043733946656516 20.925293172076167 38.25260854917448 H 0.0 **** 0.06
16128 H 37.29167593401348 20.653935142988786 37.01283788164321 H 0.0 **** 0.06
16129 H 37.584085130245626 20.15168872012832 38.69550812484658 H 0.0 **** 0.06
16130 H 37.54369406749896 21.881360577691964 38.27765346410888 H 0.0 **** 0.06
16131 C 99.7611706684643 24.110657804611122 80.058296521241 C 0.0 **** -0.24
16132 H 100.24720407988727 24.17127860608676 79.08466465164497 H 0.0 **** 0.06
16133 H 98.95713954979499 24.844686708440776 80.10885245319179 H 0.0 **** 0.06
16134 H 100.4914082801213 24.317006657893387 80.84113788640852 H 0.0 **** 0.06
16135 H 99.35050109127377 23.11033687442051 80.19825711862902 H 0.0 **** 0.06
16136 C 10.531548560349847 18.48628472230098 47.42739685104385 C 0.0 **** -0.24
16137 H 10.546905545623417 18.443079507316156 46.33790296916516 H 0.0 **** 0.06
16138 H 10.411504163903516 19.52092403294418 47.74825696789907 H 0.0 **** 0.06
16139 H 11.469179541430975 18.09041247244096 47.81840162290382 H 0.0 **** 0.06
16140 H 9.700784173669064 17.890015321704595 47.80308908475371 H 0.0 **** 0.06
16141 C 109.78880301299728 106.20820997712019 105.40424693777572 C 0.0 **** -0.24
16142 H 109.64293570040225 105.20879917947804 104.9946310664966 H 0.0 **** 0.06
16143 H 110.52697780198376 106.74184182874765 104.80551876933387 H 0.0 **** 0.06
16144 H 110.14134823837712 106.13124332654903 106.43308386525442 H 0.0 **** 0.06
16145 H 108.8439503112261 106.75095557370582 105.38375405001824 H 0.0 **** 0.06
16146 C 36.30306441257835 77.56996313886944 22.022135049291165 C 0.0 **** -0.24
16147 H 36.81459485143853 77.48618700419513 21.06400380599564 H 0.0 **** 0.06
16148 H 37.0194755637545 77.42550366370799 22.830901961773947 H 0.0 **** 0.06
16149 H 35.52518760263365 76.80822448254557 22.08566732346719 H 0.0 **** 0.06
16150 H 35.85175729041367 78.55811240688257 22.10832242487882 H 0.0 **** 0.06
16151 C 91.68412436393851 86.44043023267534 29.75289397853288 C 0.0 **** -0.24
16152 H 91.87308806661491 86.99996507606889 28.836842201373543 H 0.0 **** 0.06
16153 H 92.63378549661954 86.14840319434771 30.201728423763086 H 0.0 **** 0.06
16154 H 91.10196168213773 85.54921364643104 29.520082988413037 H 0.0 **** 0.06
16155 H 91.12806325235286 87.06602535420038 30.45179041319693 H 0.0 **** 0.06
16156 C 75.69491531285686 58.89387237363715 111.80864659154672 C 0.0 **** -0.24
16157 H 76.69841495891282 58.51050863018182 111.6224259650067 H 0.0 **** 0.06
16158 H 75.13684995132223 58.9193991324141 110.87154843880533 H 0.0 **** 0.06
16159 H 75.76253333728519 59.90096780790924 112.21885985464375 H 0.0 **** 0.06
16160 H 75.18363417992504 58.2444472413402 112.51933639605434 H 0.0 **** 0.06
16161 C 24.050809299562246 48.17747539501622 34.04314432669878 C 0.0 **** -0.24
16162 H 23.219054490345556 47.51901133784618 34.290420131474235 H 0.0 **** 0.06
16163 H 23.820937381722885 49.19231210062959 34.36922530826101 H 0.0 **** 0.06
16164 H 24.213322277904766 48.16974007459635 32.9648868697316 H 0.0 **** 0.06
16165 H 24.95232521400773 47.828759169323774 34.5485179828415 H 0.0 **** 0.06
16166 C 73.5632491890305 64.63507899823583 45.99570825102239 C 0.0 **** -0.24
16167 H 72.71599077713023 64.92638907074075 46.61588400901377 H 0.0 **** 0.06
16168 H 73.92615284144262 65.50333505792617 45.4456303052126 H 0.0 **** 0.06
16169 H 73.24994387690387 63.86286019984226 45.29298831423529 H 0.0 **** 0.06
16170 H 74.35991686817741 64.24752609340908 46.630323659692465 H 0.0 **** 0.06
16171 C 54.73421506543902 111.30547648957275 31.994745036346927 C 0.0 **** -0.24
16172 H 54.72340291477171 111.64963448374633 33.02937918169693 H 0.0 **** 0.06
16173 H 55.76115686649988 111.27833117506832 31.632079916626616 H 0.0 **** 0.06
16174 H 54.148880366881336 111.99003673931121 31.379591370326715 H 0.0 **** 0.06
16175 H 54.30233881271524 110.30712613825152 31.939132388786007 H 0.0 **** 0.06
16176 C 3.9869883737444525 63.045613215990386 21.48061928098346 C 0.0 **** -0.24
16177 H 4.316547100432558 62.73861288672663 20.48744744378847 H 0.0 **** 0.06
16178 H 2.927189938859101 63.29913953523118 21.449249051752687 H 0.0 **** 0.06
16179 H 4.559942203148921 63.915531561383034 21.80124578686133 H 0.0 **** 0.06
16180 H 4.144262507688268 62.22791153310317 22.18388749871221 H 0.0 **** 0.06
16181 C 80.93949035708036 44.29051461312716 80.41463973792418 C 0.0 **** -0.24
16182 H 81.58606052329273 45.044460500780275 80.86154565771565 H 0.0 **** 0.06
16183 H 81.43098468332741 43.86323125441069 79.53925309141232 H 0.0 **** 0.06
16184 H 79.99783792279209 44.74976703327613 80.11494445989024 H 0.0 **** 0.06
16185 H 80.74408339568743 43.50265308450713 81.14236753268193 H 0.0 **** 0.06
16186 C 53.161831344909785 18.22813014606453 107.16111841227402 C 0.0 **** -0.24
16187 H 54.07532413108933 17.683473507374558 107.39939651353565 H 0.0 **** 0.06
16188 H 53.10857580044071 18.395339362619552 106.08573510111913 H 0.0 **** 0.06
16189 H 53.16606862970841 19.187059699598592 107.67926177344921 H 0.0 **** 0.06
16190 H 52.298253323591396 17.645485716697095 107.4824980690213 H 0.0 **** 0.06
16191 C 54.963881128666635 109.3107659765336 82.95247152031374 C 0.0 **** -0.24
16192 H 54.45507605176447 109.2096612329004 81.99451977882853 H 0.0 **** 0.06
16193 H 55.0317489234494 108.33503171338377 83.43356818491901 H 0.0 **** 0.06
16194 H 54.4015823265236 109.99250075169665 83.59155619007265 H 0.0 **** 0.06
16195 H 55.966427114609296 109.70705655303017 82.79129858268311 H 0.0 **** 0.06
16196 C 3.398596745747824 110.86315085855352 11.47014716866552 C 0.0 **** -0.24
16197 H 2.4983619704217404 110.27717364082372 11.280332688711667 H 0.0 **** 0.06
16198 H 4.271895784003846 110.21258262299591 11.417060590926823 H 0.0 **** 0.06
16199 H 3.3378961635702353 111.31110845245968 12.461448213838565 H 0.0 **** 0.06
16200 H 3.4846496019402196 111.64921028022314 10.720297949854142 H 0.0 **** 0.06
16201 C 62.744734939763475 58.0545804939293 106.79954260380705 C 0.0 **** -0.24
16202 H 62.64974163013025 56.9835744158196 106.98346036704159 H 0.0 **** 0.06
16203 H 61.81049161755843 58.436476361237034 106.38869310061285 H 0.0 **** 0.06
16204 H 63.55258597081041 58.22979144111827 106.08875765039772 H 0.0 **** 0.06
16205 H 62.96685054402897 58.56482887564746 107.73688653659661 H 0.0 **** 0.06
16206 C 111.81347105753645 15.15136350089898 38.361209104275986 C 0.0 **** -0.24
16207 H 111.06837478189743 15.280528371871497 39.14701915547607 H 0.0 **** 0.06
16208 H 112.77955156757957 15.51140289875616 38.71364550401137 H 0.0 **** 0.06
16209 H 111.51250060447603 15.719000932604729 37.48021990481169 H 0.0 **** 0.06
16210 H 111.89008169766197 14.095240211425079 38.103651793121514 H 0.0 **** 0.06
16211 C 19.130460106076313 45.73697280327218 90.19113417019935 C 0.0 **** -0.24
16212 H 19.784317006014334 45.72264493901892 89.3187011927507 H 0.0 **** 0.06
16213 H 19.562870420200156 45.12049629798267 90.97892500660748 H 0.0 **** 0.06
16214 H 18.15143589469838 45.34337207778944 89.91719353421803 H 0.0 **** 0.06
16215 H 19.023506500784464 46.76145575851709 90.54728578962096 H 0.0 **** 0.06
16216 C 82.0196126549126 26.542927928256034 92.11649204406794 C 0.0 **** -0.24
16217 H 81.20400045692568 27.238140803660684 92.31271673740855 H 0.0 **** 0.06
16218 H 82.84706795529951 27.07617252301381 91.64843508373383 H 0.0 **** 0.06
16219 H 81.67174800597527 25.75542058738705 91.44832534579558 H 0.0 **** 0.06
16220 H 82.3551708312551 26.10184185775401 93.05430764228532 H 0.0 **** 0.06
16221 C 65.63610775144187 62.54660393765619 46.05102736157528 C 0.0 **** -0.24
16222 H 64.69748582947895 63.09826279656238 45.989490066172266 H 0.0 **** 0.06
16223 H 65.45979535775746 61.5019068906538 45.79521024097875 H 0.0 **** 0.06
16224 H 66.02969794090114 62.61127143221694 47.06497322569345 H 0.0 **** 0.06
16225 H 66.35514446622938 62.975766136606296 45.35421295124365 H 0.0 **** 0.06
16226 C 66.42811342395007 92.5602446862259 48.716425559763366 C 0.0 **** -0.24
16227 H 67.48135894907921 92.7272265986079 48.4876147704573 H 0.0 **** 0.06
16228 H 66.24465400246046 92.78660282003617 49.76745272778879 H 0.0 **** 0.06
16229 H 66.17462500298788 91.51918950030662 48.51913378057611 H 0.0 **** 0.06
16230 H 65.8138071841017 93.20862591417003 48.09276223826828 H 0.0 **** 0.06
16231 C 36.73312568401577 12.07610974291623 99.54863091104733 C 0.0 **** -0.24
16232 H 37.33435811888495 12.117206065590352 100.45731572173926 H 0.0 **** 0.06
16233 H 37.187664556568315 11.377056628101855 98.84548680355945 H 0.0 **** 0.06
16234 H 36.68784139921111 13.067827281994298 99.09761639348204 H 0.0 **** 0.06
16235 H 35.725585071957624 11.741822962187072 99.7943107928279 H 0.0 **** 0.06
16236 C 90.42623791590933 9.508323308232804 37.370983987922244 C 0.0 **** -0.24
16237 H 90.60384917193963 8.517946291903542 36.95215110888557 H 0.0 **** 0.06
16238 H 89.44526483450696 9.864978957244944 37.055039339195616 H 0.0 **** 0.06
16239 H 91.19462818156038 10.195296609738136 37.0155047234345 H 0.0 **** 0.06
16240 H 90.4613361452341 9.455062789162952 38.45900825587785 H 0.0 **** 0.06
16241 C 43.623302260159335 93.30923465980476 1.25340573117127 C 0.0 **** -0.24
16242 H 42.66331559702019 93.13525546769526 0.7680139307596221 H 0.0 **** 0.06
16243 H 43.491391259842885 93.29045544571605 2.3351594969829534 H 0.0 **** 0.06
16244 H 44.01186790180873 94.28156136383615 0.9511096933671723 H 0.0 **** 0.06
16245 H 44.32582130140668 92.52917234211392 0.9590314795342607 H 0.0 **** 0.06
16246 C 18.548706132696015 95.94983362360887 48.935819077003146 C 0.0 **** -0.24
16247 H 17.897572465206697 96.34617454589176 49.71495912288995 H 0.0 **** 0.06
16248 H 18.49471840586276 96.59173540730373 48.05596745812741 H 0.0 **** 0.06
16249 H 18.226199278483563 94.94238995324616 48.671294944890036 H 0.0 **** 0.06
16250 H 19.57566583541244 95.91846947604628 49.301538260851885 H 0.0 **** 0.06
16251 C 84.78144045462605 87.29823235429186 22.412300845642733 C 0.0 **** -0.24
16252 H 84.51394531703053 86.55064854411069 23.159448233841886 H 0.0 **** 0.06
16253 H 84.35192645519953 87.01897468417178 21.449777436078776 H 0.0 **** 0.06
16254 H 85.86675988094018 87.35091412504636 22.32510695482405 H 0.0 **** 0.06
16255 H 84.39354785686919 88.27008035833157 22.715564942075247 H 0.0 **** 0.06
16256 C 54.61611241335379 58.39412173661764 64.26460934382234 C 0.0 **** -0.24
16257 H 54.52892259200587 58.37974889090095 63.17884709275219 H 0.0 **** 0.06
16258 H 55.6670211150531 58.473080263392326 64.54365390034621 H 0.0 **** 0.06
16259 H 54.198871782774006 57.47516510782309 64.6751666541164 H 0.0 **** 0.06
16260 H 54.06983903726075 59.25071232116263 64.66059218137127 H 0.0 **** 0.06
16261 C 59.92900367121976 44.743449593053924 65.88308488832229 C 0.0 **** -0.24
16262 H 59.63891918667136 45.26652797105719 64.97125790166916 H 0.0 **** 0.06
16263 H 59.05597867286994 44.251027318125345 66.31242402599574 H 0.0 **** 0.06
16264 H 60.33245058874235 45.45998878238601 66.59843204475044 H 0.0 **** 0.06
16265 H 60.688149996731084 43.9972983128514 65.64764798728521 H 0.0 **** 0.06
16266 C 12.219381522431433 82.09460578755409 21.87007285554762 C 0.0 **** -0.24
16267 H 12.310664985530963 83.10396476173446 22.27177324506235 H 0.0 **** 0.06
16268 H 12.561204177350618 81.37543065429833 22.614686723836087 H 0.0 **** 0.06
16269 H 12.828755018450892 82.00509142984168 20.971719130901533 H 0.0 **** 0.06
16270 H 11.175940099330859 81.89473787001091 21.623309229227544 H 0.0 **** 0.06
16271 C 4.874195027965351 49.52057886452158 45.929587408287716 C 0.0 **** -0.24
16272 H 4.756018012217108 49.734882066352384 46.99167295561307 H 0.0 **** 0.06
16273 H 5.902310394711009 49.216158490126105 45.7329953647847 H 0.0 **** 0.06
16274 H 4.642251343491765 50.41562108260243 45.35078256422588 H 0.0 **** 0.06
16275 H 4.195101758170511 48.717577425690564 45.64259363905393 H 0.0 **** 0.06
16276 C 16.548056440139845 85.42601034828814 57.754182004230756 C 0.0 **** -0.24
16277 H 15.843623908325327 86.1153741868745 57.28852364636754 H 0.0 **** 0.06
16278 H 16.142073305840256 84.41424817284508 57.72047042065748 H 0.0 **** 0.06
16279 H 16.710042557464874 85.71812866700816 58.79215109027041 H 0.0 **** 0.06
16280 H 17.49553317731491 85.45619653307295 57.21587165376661 H 0.0 **** 0.06
16281 C 99.32016038864532 81.46382852858517 101.92236313045353 C 0.0 **** -0.24
16282 H 99.42158996783354 80.89513109602265 100.99740814492614 H 0.0 **** 0.06
16283 H 99.0989546110888 80.78410287371236 102.74452087669945 H 0.0 **** 0.06
16284 H 98.50930031449417 82.18538683388581 101.81830069209971 H 0.0 **** 0.06
16285 H 100.25223766204789 81.99148568752543 102.12770757243973 H 0.0 **** 0.06
16286 C 10.60410464425864 53.356113416324064 44.236757032239325 C 0.0 **** -0.24
16287 H 9.94352391861581 53.450553728763026 43.37537995220768 H 0.0 **** 0.06
16288 H 10.062754782367676 52.88919447317002 45.06022073972656 H 0.0 **** 0.06
16289 H 10.949048197967102 54.344816541537654 44.540846681873944 H 0.0 **** 0.06
16290 H 11.461881645483857 52.73826247756469 43.968928190198795 H 0.0 **** 0.06
16291 C 86.78212690903388 34.29293388719064 34.488508431347555 C 0.0 **** -0.24
16292 H 87.37299733144454 33.58255549244147 35.066790433515024 H 0.0 **** 0.06
16293 H 86.44281834812003 35.09751621203516 35.14068659464496 H 0.0 **** 0.06
16294 H 85.91999683219854 33.78353768703532 34.06020302211542 H 0.0 **** 0.06
16295 H 87.39419764872926 34.70758348553578 33.687918351306564 H 0.0 **** 0.06
16296 C 23.214853527379944 67.27638574983047 11.155157432310666 C 0.0 **** -0.24
16297 H 22.906314326120025 68.25470393902836 10.785643543938015 H 0.0 **** 0.06
16298 H 23.332344047904996 66.59077987680487 10.315717751479283 H 0.0 **** 0.06
16299 H 22.4573606298477 66.89053021057563 11.83685631194519 H 0.0 **** 0.06
16300 H 24.164252327414545 67.3715868421377 11.682587132491115 H 0.0 **** 0.06
16301 C 74.57718842831594 54.36393640628208 26.622279635471244 C 0.0 **** -0.24
16302 H 73.87693468935203 53.88697014345442 25.93586479968269 H 0.0 **** 0.06
16303 H 74.84700016775417 55.34837720988682 26.23953254270043 H 0.0 **** 0.06
16304 H 75.47269463939477 53.75001932256973 26.713283885386957 H 0.0 **** 0.06
16305 H 74.10861327794515 54.47123339109416 27.601408927118044 H 0.0 **** 0.06
16306 C 95.07589970589285 108.37551921448136 98.3225509045613 C 0.0 **** -0.24
16307 H 95.66124722497531 108.97252000633927 99.02237071357621 H 0.0 **** 0.06
16308 H 94.78156594124809 107.44049529610533 98.80076987264891 H 0.0 **** 0.06
16309 H 95.6769611578462 108.1591168848235 97.43927939359222 H 0.0 **** 0.06
16310 H 94.18514872240917 108.93088437053154 98.02838660443717 H 0.0 **** 0.06
16311 C 13.330608146824758 31.116982947448093 98.18741003136122 C 0.0 **** -0.24
16312 H 14.29800186481333 30.723478117424463 98.49787528731227 H 0.0 **** 0.06
16313 H 12.855745771566035 30.41575449056404 97.50009507338896 H 0.0 **** 0.06
16314 H 13.470952002882441 32.07640517115681 97.68936084077353 H 0.0 **** 0.06
16315 H 12.695741554258248 31.252730725429956 99.06322757223404 H 0.0 **** 0.06
16316 C 47.31807562294301 74.06534323416946 57.11613092722974 C 0.0 **** -0.24
16317 H 46.846935692244756 73.84810308073583 58.07403603439395 H 0.0 **** 0.06
16318 H 48.37010107257521 74.30492009456327 57.27422846161017 H 0.0 **** 0.06
16319 H 46.818127629287204 74.91470789669819 56.649782231770374 H 0.0 **** 0.06
16320 H 47.23670743655313 73.19458539633038 56.46551552782822 H 0.0 **** 0.06
16321 C 4.069775912498727 37.56643352270662 33.97732228026459 C 0.0 **** -0.24
16322 H 4.549191102042187 38.5284424500793 33.798176392310666 H 0.0 **** 0.06
16323 H 4.245257147618389 37.259245353467094 35.008571612200456 H 0.0 **** 0.06
16324 H 4.486379203913046 36.82127622322734 33.29939108635858 H 0.0 **** 0.06
16325 H 2.9975905226067567 37.65721924047017 33.80257718754939 H 0.0 **** 0.06
16326 C 25.738476340005434 13.46794721647467 78.96623212935128 C 0.0 **** -0.24
16327 H 25.370420281087064 14.363913337684252 79.46627997331359 H 0.0 **** 0.06
16328 H 25.78032382220161 13.64345885251403 77.89156157154775 H 0.0 **** 0.06
16329 H 25.065996988363793 12.635242271497901 79.17241017812466 H 0.0 **** 0.06
16330 H 26.736391701870218 13.229588449432768 79.33515821344224 H 0.0 **** 0.06
16331 C 75.85003015739414 32.74659587473687 42.62354948918231 C 0.0 **** -0.24
16332 H 75.45981959424927 33.595688226667704 42.06120230033627 H 0.0 **** 0.06
16333 H 76.52740900590248 32.17324652554905 41.98957718070035 H 0.0 **** 0.06
16334 H 75.02411808698594 32.11173417883796 42.94136887219482 H 0.0 **** 0.06
16335 H 76.38950365399427 33.10788011751612 43.49908671470327 H 0.0 **** 0.06
16336 C 87.40489408812317 62.288712760897965 54.70012976307194 C 0.0 **** -0.24
16337 H 87.08800157294911 61.2584365321793 54.862876288695844 H 0.0 **** 0.06
16338 H 87.68840704833872 62.737117659696736 55.65265108786191 H 0.0 **** 0.06
16339 H 86.58330982683066 62.85583394332366 54.26133788070143 H 0.0 **** 0.06
16340 H 88.25883011381285 62.303866591262675 54.022770166063175 H 0.0 **** 0.06
16341 C 1.5845186788466776 44.167069097737965 99.66471810985962 C 0.0 **** -0.24
16342 H 2.4457784111371836 44.47367606898058 100.2587225354574 H 0.0 **** 0.06
16343 H 1.7627992844002733 44.40584797254053 98.61639657240417 H 0.0 **** 0.06
16344 H 0.6966700354521436 44.69534137978525 100.01278935934116 H 0.0 **** 0.06
16345 H 1.433248664710277 43.09210648172541 99.77202258791249 H 0.0 **** 0.06
16346 C 10.322130683589023 14.621906139366871 12.214754048184659 C 0.0 **** -0.24
16347 H 11.008019728764197 15.446605298093004 12.019375079317939 H 0.0 **** 0.06
16348 H 9.433179022021065 15.000756526293031 12.72024270710358 H 0.0 **** 0.06
16349 H 10.813572988841031 13.883419388067466 12.847549531276997 H 0.0 **** 0.06
16350 H 10.034274309949467 14.1581572115077 11.27184579853781 H 0.0 **** 0.06
16351 C 26.52552269272263 49.78032097863007 97.89065958173617 C 0.0 **** -0.24
16352 H 26.950332995550127 49.51682127303356 96.92107121085377 H 0.0 **** 0.06
16353 H 25.49753355583499 50.118158942404065 97.7576360420567 H 0.0 **** 0.06
16354 H 27.116229647957027 50.57794662496774 98.34037279063133 H 0.0 **** 0.06
16355 H 26.539767586518167 48.90579628820032 98.54174182233146 H 0.0 **** 0.06
16356 C 112.43126207598293 5.156220794878209 86.60815462096153 C 0.0 **** -0.24
16357 H 113.19853824263586 5.241246961354321 87.37859495300037 H 0.0 **** 0.06
16358 H 112.89327553752068 4.856968523282177 85.66769622573597 H 0.0 **** 0.06
16359 H 111.93734369170161 6.11958242711664 86.48045028363006 H 0.0 **** 0.06
16360 H 111.69722826765873 4.408517454936586 86.90814872050473 H 0.0 **** 0.06
16361 C 71.33598755852253 103.32176517975927 17.80655432301171 C 0.0 **** -0.24
16362 H 71.04935801390542 104.30506714052015 18.180241599563402 H 0.0 **** 0.06
16363 H 70.44143364756522 102.71825235566783 17.65038453311101 H 0.0 **** 0.06
16364 H 71.98248156549877 102.8310950448346 18.533816779148992 H 0.0 **** 0.06
16365 H 71.86851630231055 103.43409760962737 16.862881247327437 H 0.0 **** 0.06
16366 C 20.090727913985262 23.113552721016788 17.189145687479424 C 0.0 **** -0.24
16367 H 19.527627464121167 23.583384175599946 17.995967053105574 H 0.0 **** 0.06
16368 H 19.905539728482694 22.039209742909776 17.19522155059144 H 0.0 **** 0.06
16369 H 21.15551140302503 23.30004737824811 17.33333072074481 H 0.0 **** 0.06
16370 H 19.774657049278915 23.532421115846404 16.23408713892519 H 0.0 **** 0.06
16371 C 83.078441445251 94.48427876754471 66.0061419124311 C 0.0 **** -0.24
16372 H 83.58436502081963 95.44059402711707 65.87781504386768 H 0.0 **** 0.06
16373 H 83.24502155613263 94.11873745875204 67.01974491422544 H 0.0 **** 0.06
16374 H 83.47466987447595 93.76525121150422 65.28981256094062 H 0.0 **** 0.06
16375 H 82.00961784972921 94.61350438024925 65.83697859041789 H 0.0 **** 0.06
16376 C 63.85032045261142 14.747748798543967 39.34555936280593 C 0.0 **** -0.24
16377 H 63.08561322622334 14.090615292918748 39.759530129979 H 0.0 **** 0.06
16378 H 63.569001125121154 15.039610486374826 38.33358871194156 H 0.0 **** 0.06
16379 H 64.80536456822085 14.222725028418846 39.320736324610024 H 0.0 **** 0.06
16380 H 63.940378542104305 15.638322018834106 39.96812045205408 H 0.0 **** 0.06
16381 C 73.32047438920054 89.1260988911906 90.93940087798217 C 0.0 **** -0.24
16382 H 73.35822350660402 89.54271514330051 89.93302705372108 H 0.0 **** 0.06
16383 H 73.33192751912219 88.03773013940969 90.88197554860264 H 0.0 **** 0.06
16384 H 72.40575639536925 89.4555081238787 91.43335431877438 H 0.0 **** 0.06
16385 H 74.18422762026293 89.47009598634085 91.5074692607499 H 0.0 **** 0.06
16386 C 76.39569981395627 90.18543930225911 78.21622676052425 C 0.0 **** -0.24
16387 H 77.42345346327014 90.46707454636001 78.44507039169505 H 0.0 **** 0.06
16388 H 75.89318071638718 91.0171203355197 77.72100087002866 H 0.0 **** 0.06
16389 H 75.87133895861604 89.94127984492084 79.1396660911991 H 0.0 **** 0.06
16390 H 76.39502286447399 89.31649796256386 77.55821317696822 H 0.0 **** 0.06
16391 C 94.1005102487589 44.61496983725152 21.211475079818797 C 0.0 **** -0.24
16392 H 93.15089416873246 45.13854248043174 21.10550186445448 H 0.0 **** 0.06
16393 H 93.96921453022384 43.75245186070384 21.865727040151 H 0.0 **** 0.06
16394 H 94.84071400655338 45.2892605740995 21.643058015430427 H 0.0 **** 0.06
16395 H 94.44121828952575 44.27962443377078 20.231613399239166 H 0.0 **** 0.06
16396 C 100.29268000483768 111.20929464973113 40.53520156176403 C 0.0 **** -0.24
16397 H 99.74497533875194 111.31650999372012 39.599194174436796 H 0.0 **** 0.06
16398 H 99.7756054959886 110.49568278220374 41.17796398914772 H 0.0 **** 0.06
16399 H 100.34806787730952 112.17538503550108 41.036482836021804 H 0.0 **** 0.06
16400 H 101.300018513836 110.84827637965893 40.32734503400522 H 0.0 **** 0.06
16401 C 0.05768155418239562 59.59920232593129 105.18548516329483 C 0.0 **** -0.24
16402 H -0.8458244200608425 59.44080857043821 105.7751654334096 H 0.0 **** 0.06
16403 H -0.17283246713405287 60.23952865117667 104.33359378723526 H 0.0 **** 0.06
16404 H 0.43103094979678325 58.639342123111874 104.82830870754981 H 0.0 **** 0.06
16405 H 0.8166192446400604 60.0767069289094 105.80577732276589 H 0.0 **** 0.06
16406 C 91.25290996556458 103.05297877191171 13.938462192645432 C 0.0 **** -0.24
16407 H 91.90279155005828 103.92434163955784 14.019567519902324 H 0.0 **** 0.06
16408 H 91.13979787233177 102.59200702346811 14.919084456071687 H 0.0 **** 0.06
16409 H 91.69331816777697 102.33464160760661 13.247196898261564 H 0.0 **** 0.06
16410 H 90.27535389696203 103.36212780624516 13.566812538210343 H 0.0 **** 0.06
16411 C 23.10115167040334 68.4323372682934 19.711767264305426 C 0.0 **** -0.24
16412 H 23.61136563138814 69.31042066083722 20.107220976469666 H 0.0 **** 0.06
16413 H 23.79824695805877 67.5954512835406 19.668855709954865 H 0.0 **** 0.06
16414 H 22.72983645589062 68.64902811827238 18.709680677208695 H 0.0 **** 0.06
16415 H 22.26435030454479 68.17474209660742 20.36182391692582 H 0.0 **** 0.06
16416 C 98.8262812473188 87.43704794009204 45.49561737514145 C 0.0 **** -0.24
16417 H 99.48676867888554 88.26984960316267 45.25430610621328 H 0.0 **** 0.06
16418 H 98.29578018747023 87.1221853918762 44.5959125898124 H 0.0 **** 0.06
16419 H 98.10639751064093 87.7514205894955 46.25119902192479 H 0.0 **** 0.06
16420 H 99.41689821332534 86.60550453648554 45.88010737291111 H 0.0 **** 0.06
16421 C 45.41185303363221 103.18381622322067 67.81253474046093 C 0.0 **** -0.24
16422 H 44.724461209787876 102.99030525813544 66.98866314151866 H 0.0 **** 0.06
16423 H 44.84961017504156 103.5301426032162 68.68007115402187 H 0.0 **** 0.06
16424 H 46.12899953876348 103.94890806173382 67.51532479342379 H 0.0 **** 0.06
16425 H 45.94297860153523 102.2661460427941 68.06578456716886 H 0.0 **** 0.06
16426 C 42.380771343041616 75.58577215101366 72.77677300308375 C 0.0 **** -0.24
16427 H 42.410899623731 75.09747618989911 73.7509920493464 H 0.0 **** 0.06
16428 H 41.4836044423612 75.27305809878567 72.2410501698638 H 0.0 **** 0.06
16429 H 43.264462012999005 75.30475629273269 72.2031613551049 H 0.0 **** 0.06
16430 H 42.36497942417926 76.66746939638426 72.9136639396853 H 0.0 **** 0.06
16431 C 21.280608535082322 2.894464673357275 35.4970866606275 C 0.0 **** -0.24
16432 H 21.51062278772717 2.2000036143919885 36.30412171519791 H 0.0 **** 0.06
16433 H 20.471780882980134 3.5566682959518836 35.80596298237296 H 0.0 **** 0.06
16434 H 20.974727754494463 2.33463612181181 34.612477475639935 H 0.0 **** 0.06
16435 H 22.166420959284274 3.4854711268957317 35.26389119808931 H 0.0 **** 0.06
16436 C 44.34474310040228 44.53731319991448 11.449613801115973 C 0.0 **** -0.24
16437 H 43.469533437421056 44.855729539733176 10.883699104494923 H 0.0 **** 0.06
16438 H 44.49421018817629 45.207792970103824 12.29514604990149 H 0.0 **** 0.06
16439 H 45.22272840328846 44.562871563740444 10.804331726211032 H 0.0 **** 0.06
16440 H 44.191379462097984 43.521424620765856 11.813639043020814 H 0.0 **** 0.06
16441 C 26.983768873078446 92.48275767466467 0.16566817092360964 C 0.0 **** -0.24
16442 H 27.048741987980748 93.39417187331432 -0.4283394234013116 H 0.0 **** 0.06
16443 H 27.517191456235167 91.67965319925705 -0.3427449812167964 H 0.0 **** 0.06
16444 H 25.93781490402185 92.20392888706334 0.2901195403728565 H 0.0 **** 0.06
16445 H 27.43329898968281 92.65423367243642 1.1440807036291858 H 0.0 **** 0.06
16446 C 43.942659142680384 68.53868201125971 46.06870307740843 C 0.0 **** -0.24
16447 H 44.991667764339866 68.40305027223107 45.80541932457005 H 0.0 **** 0.06
16448 H 43.331907090224036 67.83680246941847 45.50009382841387 H 0.0 **** 0.06
16449 H 43.63831631161321 69.55889412110932 45.83366028167501 H 0.0 **** 0.06
16450 H 43.80963652981205 68.35579220912118 47.13522627150047 H 0.0 **** 0.06
16451 C 29.739483460531915 11.766754863015038 107.2769919646831 C 0.0 **** -0.24
16452 H 30.674480363094005 11.730493606256175 106.71708540485538 H 0.0 **** 0.06
16453 H 29.90851841877725 12.264621784803467 108.23208574633452 H 0.0 **** 0.06
16454 H 29.38148282577754 10.752920644531983 107.45354807829655 H 0.0 **** 0.06
16455 H 28.99518688027814 12.320230769597927 106.70458878249046 H 0.0 **** 0.06
16456 C 47.03103432784101 100.28046130632694 90.69712579215684 C 0.0 **** -0.24
16457 H 46.8868728065261 100.83306084976212 89.76924889652119 H 0.0 **** 0.06
16458 H 48.07616382944033 100.34786309808854 91.0008753103046 H 0.0 **** 0.06
16459 H 46.7632925284924 99.2350927652252 90.54372655243145 H 0.0 **** 0.06
16460 H 46.397901120360075 100.70720809508273 91.47569561465482 H 0.0 **** 0.06
16461 C 94.44910411176079 99.5948688879906 68.21598132296475 C 0.0 **** -0.24
16462 H 93.76420297454379 99.15422816899957 67.4910712489926 H 0.0 **** 0.06
16463 H 93.88215524377014 100.17307725010326 68.94565280038555 H 0.0 **** 0.06
16464 H 95.15126167468102 100.24983259613575 67.69958930195202 H 0.0 **** 0.06
16465 H 94.99708519850427 98.80277257840277 68.72591419458732 H 0.0 **** 0.06
16466 C 78.62846357520567 22.131344879456364 27.39882138325931 C 0.0 **** -0.24
16467 H 78.53288367042336 21.179994978241055 26.87483257171788 H 0.0 **** 0.06
16468 H 79.38134620828177 22.04071193767234 28.182467259691165 H 0.0 **** 0.06
16469 H 77.6702023023318 22.398644002847817 27.844246912491627 H 0.0 **** 0.06
16470 H 78.92893616543705 22.905444007240476 26.693089052655438 H 0.0 **** 0.06
16471 C 3.525994540495958 54.31487327377238 105.41646562057886 C 0.0 **** -0.24
16472 H 3.6735259828979565 54.36297222934917 104.33788770760162 H 0.0 **** 0.06
16473 H 3.801029008310678 55.26974893861376 105.86361755753413 H 0.0 **** 0.06
16474 H 4.150589649376883 53.52529757361668 105.83331272499129 H 0.0 **** 0.06
16475 H 2.4790679670302325 54.10115375298392 105.63012671919265 H 0.0 **** 0.06
16476 C 84.8540902973429 26.84235819286232 81.43537849026993 C 0.0 **** -0.24
16477 H 84.09356041781979 26.28916348276198 81.9867425473914 H 0.0 **** 0.06
16478 H 84.74906113600699 26.638324607264224 80.36915823187115 H 0.0 **** 0.06
16479 H 85.84376371447547 26.53063093121972 81.76960752063752 H 0.0 **** 0.06
16480 H 84.72898478503058 27.90958176531467 81.61614021448722 H 0.0 **** 0.06
16481 C 84.92876268452241 40.23831890545654 90.61276198711187 C 0.0 **** -0.24
16482 H 85.17748414394092 40.966530772586125 89.84243584999098 H 0.0 **** 0.06
16483 H 85.8217095549339 39.67244898912355 90.8805503000226 H 0.0 **** 0.06
16484 H 84.1663170377602 39.55686746103078 90.23549424367775 H 0.0 **** 0.06
16485 H 84.54917334967533 40.75648476000643 91.4935550896704 H 0.0 **** 0.06
16486 C 78.1732394961499 11.712396311839171 95.16578463425955 C 0.0 **** -0.24
16487 H 78.0059820515093 12.5225286397406 94.45578747634286 H 0.0 **** 0.06
16488 H 77.37223754736974 10.979205894155449 95.07469652715119 H 0.0 **** 0.06
16489 H 78.1855879207476 12.11400550049747 96.17837976131017 H 0.0 **** 0.06
16490 H 79.12974841917077 11.234054438866089 94.95213025389293 H 0.0 **** 0.06
16491 C 24.67374462560278 51.913565437966156 48.12783578608003 C 0.0 **** -0.24
16492 H 24.83420635460857 52.06276685365651 49.19535455995982 H 0.0 **** 0.06
16493 H 24.883222440190337 50.875054162422884 47.87056979119881 H 0.0 **** 0.06
16494 H 25.33952932772644 52.56917771538775 47.56535135051068 H 0.0 **** 0.06
16495 H 23.638379922252852 52.14810000509499 47.88048004733568 H 0.0 **** 0.06
16496 C 5.69802317595088 108.18049957645188 56.39165539437088 C 0.0 **** -0.24
16497 H 6.3369947268396345 108.80342503490061 55.765909753266136 H 0.0 **** 0.06
16498 H 5.531816621299356 107.22171448321424 55.9003480305521 H 0.0 **** 0.06
16499 H 4.74247552256071 108.68117693094898 56.54599018694946 H 0.0 **** 0.06
16500 H 6.181814427583504 108.01667026088185 57.354450469465654 H 0.0 **** 0.06
16501 C 89.8607523921315 99.11105192756884 111.26304663806565 C 0.0 **** -0.24
16502 H 90.33999200792371 98.34288460777245 111.8700472597821 H 0.0 **** 0.06
16503 H 89.41735275864164 98.65205872396345 110.37925118148246 H 0.0 **** 0.06
16504 H 90.60394478986314 99.8475636367769 110.95623399468838 H 0.0 **** 0.06
16505 H 89.08264678514263 99.60249267179262 111.8473710905053 H 0.0 **** 0.06
16506 C 16.394291696302446 7.497520763688158 34.10334226782277 C 0.0 **** -0.24
16507 H 16.33708676986197 8.361747957378611 34.765815208003175 H 0.0 **** 0.06
16508 H 17.417834419002475 7.122168056337443 34.08490119688673 H 0.0 **** 0.06
16509 H 16.097441022213758 7.792570555925977 33.09691358905485 H 0.0 **** 0.06
16510 H 15.72641134608699 6.716098027241742 34.465337727919575 H 0.0 **** 0.06
16511 C 23.79956053537262 81.98022886228785 101.14305834578101 C 0.0 **** -0.24
16512 H 24.051713171031906 81.40353486066891 100.25319573761172 H 0.0 **** 0.06
16513 H 24.628445413048105 81.94010278582101 101.84937351298538 H 0.0 **** 0.06
16514 H 22.905859625288844 81.5615711370836 101.60604084540446 H 0.0 **** 0.06
16515 H 23.610309869576742 83.01677493020776 100.86157494980517 H 0.0 **** 0.06
16516 C 57.31826150394844 20.344675283978745 81.07703467238858 C 0.0 **** -0.24
16517 H 56.88188289904157 21.339362754213084 80.97942826601255 H 0.0 **** 0.06
16518 H 57.57391412570048 20.16124802781377 82.12041214108172 H 0.0 **** 0.06
16519 H 58.218449890110755 20.282601082313136 80.46538439299118 H 0.0 **** 0.06
16520 H 56.598672515003294 19.59797727482021 80.74096597183993 H 0.0 **** 0.06
16521 C 41.82632847113368 92.67541524400582 37.77139231060835 C 0.0 **** -0.24
16522 H 41.71958752318103 93.75746003680604 37.8482937252553 H 0.0 **** 0.06
16523 H 42.82103299826926 92.434152342154 37.39654232901313 H 0.0 **** 0.06
16524 H 41.07425190951133 92.28456142057573 37.08471507458137 H 0.0 **** 0.06
16525 H 41.689254107284654 92.22672524931247 38.754583656163504 H 0.0 **** 0.06
16526 C 101.84014063252079 73.48592504738303 11.897687888941334 C 0.0 **** -0.24
16527 H 101.4431957780873 73.85974510479025 10.954579379387866 H 0.0 **** 0.06
16528 H 102.9212588055841 73.37583188993733 11.818313250760184 H 0.0 **** 0.06
16529 H 101.39107505725642 72.51818548096253 12.122722710959039 H 0.0 **** 0.06
16530 H 101.60374780376773 74.19049165117701 12.69493170934598 H 0.0 **** 0.06
16531 C 65.55352078300169 14.081235697660418 15.425114830154342 C 0.0 **** -0.24
16532 H 65.8790374853026 13.069253199629543 15.66265766587108 H 0.0 **** 0.06
16533 H 65.08194132936774 14.088692794552628 14.441511402281705 H 0.0 **** 0.06
16534 H 66.41605223533571 14.748567558513287 15.419445594037626 H 0.0 **** 0.06
16535 H 64.83748539456164 14.419384678014808 16.17354313526539 H 0.0 **** 0.06
16536 C 90.33769497062565 45.77055682820844 28.294808270480218 C 0.0 **** -0.24
16537 H 89.96020229842048 45.019811316963924 27.601706720119225 H 0.0 **** 0.06
16538 H 91.4106807754539 45.89740483011234 28.142609138499594 H 0.0 **** 0.06
16539 H 90.1522396358603 45.44560500989839 29.31905876695516 H 0.0 **** 0.06
16540 H 89.83082708899016 46.71785628138798 28.117103572565185 H 0.0 **** 0.06
16541 C 66.50611944672187 87.3635708948946 85.76924164460087 C 0.0 **** -0.24
16542 H 66.87263522392507 86.43156497483906 85.33815861386458 H 0.0 **** 0.06
16543 H 65.50585763148032 87.20801497817448 86.17315628182786 H 0.0 **** 0.06
16544 H 66.47070511069234 88.13193386802004 84.99732939507064 H 0.0 **** 0.06
16545 H 67.1757367621071 87.68146355565574 86.56861409595444 H 0.0 **** 0.06
16546 C 92.90348522790853 17.58429597462606 102.08202546280364 C 0.0 **** -0.24
16547 H 92.77997994376653 16.87405974242168 102.89940622586303 H 0.0 **** 0.06
16548 H 93.2667494186704 18.53349288005974 102.47643232664385 H 0.0 **** 0.06
16549 H 91.94385747163287 17.738570466164774 101.58784797906105 H 0.0 **** 0.06
16550 H 93.62203763795222 17.189387584406106 101.3637315163459 H 0.0 **** 0.06
16551 C 65.06020351016116 18.137575011116713 44.283450525395864 C 0.0 **** -0.24
16552 H 65.62338195191745 17.22852784080134 44.495060276262706 H 0.0 **** 0.06
16553 H 64.99057307899562 18.73957225579592 45.18907918605774 H 0.0 **** 0.06
16554 H 64.0595085682707 17.873680124161215 43.94277846300611 H 0.0 **** 0.06
16555 H 65.57075143537739 18.706324428432072 43.505613546103035 H 0.0 **** 0.06
16556 C 11.644383979559308 66.78027839584371 29.24479577384855 C 0.0 **** -0.24
16557 H 11.09443451132259 66.84318498338885 30.183421202113237 H 0.0 **** 0.06
16558 H 11.03533965993249 66.26690268180457 28.500586934922126 H 0.0 **** 0.06
16559 H 12.57008566140216 66.2259433319816 29.40259463359814 H 0.0 **** 0.06
16560 H 11.878248356023363 67.78541461565356 28.893330204554644 H 0.0 **** 0.06
16561 C 33.9130556398089 61.25568566133048 54.99998934631289 C 0.0 **** -0.24
16562 H 33.43528721078317 62.15836918589017 54.61877131047656 H 0.0 **** 0.06
16563 H 34.99471122932391 61.34448611183547 54.89284399732923 H 0.0 **** 0.06
16564 H 33.561339614182884 60.392965914106504 54.43557834653284 H 0.0 **** 0.06
16565 H 33.660692813607966 61.12902536469954 56.052030920218634 H 0.0 **** 0.06
16566 C 79.11743893930799 30.99499966331991 77.20781974873609 C 0.0 **** -0.24
16567 H 78.43100568597634 30.473489421559947 76.54164200882525 H 0.0 **** 0.06
16568 H 79.9714939503188 31.360231237514874 76.6371908472851 H 0.0 **** 0.06
16569 H 79.46340376496545 30.309806602323043 77.98140889743411 H 0.0 **** 0.06
16570 H 78.60313802553839 31.837144781478287 77.67205527476412 H 0.0 **** 0.06
16571 C 30.271082738570414 65.4205832509947 35.40937844392812 C 0.0 **** -0.24
16572 H 30.342356550803856 65.92710991921189 36.37221446413355 H 0.0 **** 0.06
16573 H 30.620288585163017 64.39340837361559 35.51347178862261 H 0.0 **** 0.06
16574 H 30.8885122813848 65.94278813413541 34.67846927596045 H 0.0 **** 0.06
16575 H 29.233468422247682 65.42052658000134 35.075738055282926 H 0.0 **** 0.06
16576 C 84.33484376386201 74.87591542622289 48.66732803322745 C 0.0 **** -0.24
16577 H 84.72706558069342 73.93115052392025 48.29280215258976 H 0.0 **** 0.06
16578 H 84.91839742084642 75.70011362138766 48.25720262474053 H 0.0 **** 0.06
16579 H 84.39907309297712 74.89000068634877 49.75510951840516 H 0.0 **** 0.06
16580 H 83.29292870822906 74.98279008152983 48.36310394254028 H 0.0 **** 0.06
16581 C 57.38747813735311 95.60088230130583 98.84341213009938 C 0.0 **** -0.24
16582 H 56.69340224262489 94.76301563196404 98.78161037521113 H 0.0 **** 0.06
16583 H 56.86928591241856 96.47320910880319 99.24195467563808 H 0.0 **** 0.06
16584 H 57.77045665170835 95.82913246522091 97.84816654384468 H 0.0 **** 0.06
16585 H 58.21687248322369 95.33803811622917 99.50019318705577 H 0.0 **** 0.06
16586 C 97.8637383466064 8.445214654749309 100.74944735481984 C 0.0 **** -0.24
16587 H 98.76434282099467 8.843224998205008 100.28137496222925 H 0.0 **** 0.06
16588 H 98.07368481707678 7.458626300287968 101.16143671773105 H 0.0 **** 0.06
16589 H 97.07102652136842 8.368378033118514 100.00491695595039 H 0.0 **** 0.06
16590 H 97.5463093848023 9.11431701447923 101.55054372599432 H 0.0 **** 0.06
16591 C 27.94203153361346 93.9871994682 73.42660419715912 C 0.0 **** -0.24
16592 H 28.894554232994864 93.62363036974708 73.04320582043147 H 0.0 **** 0.06
16593 H 27.62476487304218 93.36468221552323 74.26254885009564 H 0.0 **** 0.06
16594 H 27.19237929980605 93.94450648778144 72.63600488664633 H 0.0 **** 0.06
16595 H 28.05582644207084 95.01812468009265 73.76364037730104 H 0.0 **** 0.06
16596 C 87.54919831939657 27.424148403154852 11.979356496619552 C 0.0 **** -0.24
16597 H 87.76074419657533 27.861117628455112 11.00371691291961 H 0.0 **** 0.06
16598 H 87.97893522091658 28.051927355757726 12.759398241159971 H 0.0 **** 0.06
16599 H 87.98639150168157 26.427388972941102 12.033051170740986 H 0.0 **** 0.06
16600 H 86.47100646795224 27.355350800571536 12.12013487324338 H 0.0 **** 0.06
16601 C 82.12249992126266 28.869825283342834 56.94578656757917 C 0.0 **** -0.24
16602 H 83.09912589859795 29.02921919250643 57.40107173131316 H 0.0 **** 0.06
16603 H 81.48567003027955 28.316992524107377 57.63691684593104 H 0.0 **** 0.06
16604 H 82.23912415687602 28.299645875028347 56.023927769324814 H 0.0 **** 0.06
16605 H 81.66478163866287 29.8337098879974 56.72172436414289 H 0.0 **** 0.06
16606 C 103.98100912997805 18.279864051515464 25.464166869417994 C 0.0 **** -0.24
16607 H 104.60592643750869 18.270203899825635 26.357839346270794 H 0.0 **** 0.06
16608 H 103.22494038340324 19.06019213028831 25.55864230338392 H 0.0 **** 0.06
16609 H 103.4925664893997 17.311716506623693 25.35298451422483 H 0.0 **** 0.06
16610 H 104.59998208264469 18.47687800090693 24.590099220751483 H 0.0 **** 0.06
16611 C 32.381725669617026 39.35996141656332 15.081832124802816 C 0.0 **** -0.24
16612 H 32.057393194444955 40.333798865525026 14.714488307150077 H 0.0 **** 0.06
16613 H 32.39793102222228 38.648160994257864 14.25622025421302 H 0.0 **** 0.06
16614 H 31.689546548352894 39.01198638374797 15.848670985417016 H 0.0 **** 0.06
16615 H 33.38153602750174 39.44708684236217 15.506789512092553 H 0.0 **** 0.06
16616 C 25.18018917617755 76.25568624185485 57.924475469748735 C 0.0 **** -0.24
16617 H 26.07548850091777 75.64777342291393 58.04968505126161 H 0.0 **** 0.06
16618 H 25.150682965003142 76.65544923139495 56.90973242107252 H 0.0 **** 0.06
16619 H 25.196747321100446 77.07960884261615 58.63911024585693 H 0.0 **** 0.06
16620 H 24.297183720389313 75.64151446758919 58.09946905214897 H 0.0 **** 0.06
16621 C 71.39953439636545 17.94512806652085 49.923792948735354 C 0.0 **** -0.24
16622 H 70.60658301789763 17.280752884121966 49.5819156926984 H 0.0 **** 0.06
16623 H 71.02105816707811 18.580415161203973 50.724836932390815 H 0.0 **** 0.06
16624 H 71.73596574303184 18.567756776400415 49.09407920595319 H 0.0 **** 0.06
16625 H 72.23588949647299 17.351788405644015 50.29467654157153 H 0.0 **** 0.06
16626 C 30.57875088763251 88.1640385782477 95.67861119682729 C 0.0 **** -0.24
16627 H 29.87413816008518 88.73930534913265 95.07867003890672 H 0.0 **** 0.06
16628 H 31.07254209361969 88.82509679173015 96.39186063091259 H 0.0 **** 0.06
16629 H 31.325193409216297 87.7104999238085 95.02614689291346 H 0.0 **** 0.06
16630 H 30.044003143574514 87.38217267334383 96.21714244042144 H 0.0 **** 0.06
16631 C 82.84964495511258 78.45837070904372 24.90614527287444 C 0.0 **** -0.24
16632 H 83.02810041991103 79.41223099806635 24.409590547913407 H 0.0 **** 0.06
16633 H 82.67771362101158 78.62815013065068 25.968546278208343 H 0.0 **** 0.06
16634 H 83.71997717332849 77.8136239364294 24.77665425650647 H 0.0 **** 0.06
16635 H 81.97464082798669 77.97804042955443 24.467918155656843 H 0.0 **** 0.06
16636 C 60.156835028617216 30.891307185991707 75.89595064260192 C 0.0 **** -0.24
16637 H 60.634695513898926 30.528258442984395 74.98568398238908 H 0.0 **** 0.06
16638 H 60.71965403954092 31.739303469470883 76.28814388992126 H 0.0 **** 0.06
16639 H 60.13656985877052 30.093810217128464 76.63758141481136 H 0.0 **** 0.06
16640 H 59.13745511210187 31.205269647760588 75.67100273786508 H 0.0 **** 0.06
16641 C 6.502326085261075 29.714668950092914 101.07260779579576 C 0.0 **** -0.24
16642 H 7.569031850356168 29.90211231194911 101.20270502745973 H 0.0 **** 0.06
16643 H 6.282270347984536 29.592882692630724 100.01211877754668 H 0.0 **** 0.06
16644 H 5.935306372683613 30.557478792904192 101.46840146202692 H 0.0 **** 0.06
16645 H 6.2254473831339965 28.80733605798497 101.60866987252518 H 0.0 **** 0.06
16646 C 90.76441760241644 31.8388054913152 51.5248130399151 C 0.0 **** -0.24
16647 H 89.73462063448434 31.50631499117985 51.395049221017075 H 0.0 **** 0.06
16648 H 91.04199874071995 32.49366901219082 50.69900019375598 H 0.0 **** 0.06
16649 H 91.42617438875612 30.97154551616383 51.53963209966602 H 0.0 **** 0.06
16650 H 90.85510849337228 32.38079885100931 52.46632818517887 H 0.0 **** 0.06
16651 C 105.30996155316416 60.8679356384391 110.84501854695466 C 0.0 **** -0.24
16652 H 104.72422398957914 60.53246291070884 111.69999858253652 H 0.0 **** 0.06
16653 H 106.30652152893117 61.158189313017 111.1792841091665 H 0.0 **** 0.06
16654 H 104.81921177131011 61.72274515161089 110.3812571289717 H 0.0 **** 0.06
16655 H 105.39122323136093 60.05795344708512 110.11979181766276 H 0.0 **** 0.06
16656 C 93.29619405555613 41.91965975930684 78.02612016867067 C 0.0 **** -0.24
16657 H 92.35473237040898 41.37267545722074 77.97040222519684 H 0.0 **** 0.06
16658 H 93.62619927632295 41.96952703918603 79.06353386187573 H 0.0 **** 0.06
16659 H 93.15208893673955 42.92837757379328 77.64017661618993 H 0.0 **** 0.06
16660 H 94.0495967206408 41.40579291498279 77.42927038102493 H 0.0 **** 0.06
16661 C 29.450336167780762 27.985937106804485 17.22418425551956 C 0.0 **** -0.24
16662 H 28.5383002219522 28.583454650372573 17.229149272673425 H 0.0 **** 0.06
16663 H 29.191083757307695 26.92906609903541 17.159738434437344 H 0.0 **** 0.06
16664 H 30.008541291204182 28.168786550999727 18.14300609696906 H 0.0 **** 0.06
16665 H 30.06160784562732 28.264559128947823 16.366337507980006 H 0.0 **** 0.06
16666 C 102.24328719508583 66.34782523340738 85.75578057865846 C 0.0 **** -0.24
16667 H 102.4885354248863 67.33646105779144 85.36960338932778 H 0.0 **** 0.06
16668 H 101.82774638876421 65.73741758770234 84.95311513416647 H 0.0 **** 0.06
16669 H 101.51102062964475 66.44162731790661 86.55755375210146 H 0.0 **** 0.06
16670 H 103.1472330485901 65.87463461179786 86.14153440876015 H 0.0 **** 0.06
16671 C 20.59266453008786 65.39374215977696 83.24379100869672 C 0.0 **** -0.24
16672 H 21.663786242999294 65.20126224806006 83.31614592237472 H 0.0 **** 0.06
16673 H 20.174019313507813 64.8108415735395 82.4216890460863 H 0.0 **** 0.06
16674 H 20.426695018371646 66.4547278555599 83.05868339099618 H 0.0 **** 0.06
16675 H 20.10816511874461 65.10687150588711 84.17681025139248 H 0.0 **** 0.06
16676 C 107.13223076969297 75.00670089445549 63.974704977001174 C 0.0 **** -0.24
16677 H 107.35761948027498 73.96603543086792 64.20529909410484 H 0.0 **** 0.06
16678 H 107.82778803082921 75.65588746583884 64.50645235669697 H 0.0 **** 0.06
16679 H 106.11257330990475 75.23502562878085 64.2858816181045 H 0.0 **** 0.06
16680 H 107.22942026484708 75.17067864826987 62.90111337163186 H 0.0 **** 0.06
16681 C 78.25081404907476 24.29311221249384 34.2062227641774 C 0.0 **** -0.24
16682 H 77.31258377171469 24.763437237979616 34.499177814446824 H 0.0 **** 0.06
16683 H 78.11488598541533 23.76955558655112 33.259171292715706 H 0.0 **** 0.06
16684 H 78.5561933138375 23.5825875953021 34.97454931008721 H 0.0 **** 0.06
16685 H 79.02024247474279 25.057551419702037 34.09165808404262 H 0.0 **** 0.06
16686 C 76.21717828475735 19.80668687565927 100.37732847564084 C 0.0 **** -0.24
16687 H 76.39371696821883 20.54639904505752 99.59610032659293 H 0.0 **** 0.06
16688 H 76.2180778190421 20.298314275960646 101.35019798581973 H 0.0 **** 0.06
16689 H 77.00640678566103 19.054788469025304 100.34991316623308 H 0.0 **** 0.06
16690 H 75.25331252038896 19.3268603236641 100.21318356745883 H 0.0 **** 0.06
16691 C 79.22048366329827 67.59201852794382 2.1712709732115627 C 0.0 **** -0.24
16692 H 78.73765073221446 68.00127900162732 3.058453926771108 H 0.0 **** 0.06
16693 H 79.60479684271735 66.59531819102568 2.394240393882683 H 0.0 **** 0.06
16694 H 80.04456989275985 68.24056397453114 1.8742876909377912 H 0.0 **** 0.06
16695 H 78.49654992827428 67.52943026232884 1.359872829626653 H 0.0 **** 0.06
16696 C 30.376993002677885 80.03941877469254 7.5638161188950335 C 0.0 **** -0.24
16697 H 29.316500117320004 80.17463554459732 7.350809860373431 H 0.0 **** 0.06
16698 H 30.886405899348155 79.69641622139568 6.662940892050031 H 0.0 **** 0.06
16699 H 30.497233390767626 79.29708374891447 8.353808165426841 H 0.0 **** 0.06
16700 H 30.806673003275485 80.9871308520826 7.886343996286257 H 0.0 **** 0.06
16701 C 29.013092482184447 21.001374190033594 84.31323677918544 C 0.0 **** -0.24
16702 H 30.041821252829664 21.220027652170295 84.0268800627075 H 0.0 **** 0.06
16703 H 28.97210832896758 20.782028013846144 85.38056662228027 H 0.0 **** 0.06
16704 H 28.654879612971058 20.13905036049743 83.7511144334436 H 0.0 **** 0.06
16705 H 28.383171254659374 21.864103766069228 84.09526121954826 H 0.0 **** 0.06
16706 C 108.42626472594777 36.296185046952964 83.20765055690333 C 0.0 **** -0.24
16707 H 108.72667259196528 35.98752546733295 82.20584277784667 H 0.0 **** 0.06
16708 H 107.98801286104901 35.44646489146705 83.73219265638065 H 0.0 **** 0.06
16709 H 107.69095821554639 37.09693732632878 83.13584211683894 H 0.0 **** 0.06
16710 H 109.29925008187116 36.650832287037325 83.7552784182603 H 0.0 **** 0.06
16711 C 4.564345992277964 7.9665403987852415 94.84087772211379 C 0.0 **** -0.24
16712 H 4.359189690586618 7.263424284592759 94.0336924854669 H 0.0 **** 0.06
16713 H 4.891456141919178 7.418422992298645 95.72498444857115 H 0.0 **** 0.06
16714 H 3.6596529478104287 8.526519811646097 95.07390527985709 H 0.0 **** 0.06
16715 H 5.348882287185177 8.656352051210263 94.53009795188791 H 0.0 **** 0.06
16716 C 95.60065907093164 95.82356154870706 14.548845274516793 C 0.0 **** -0.24
16717 H 95.76859225418207 95.69097536556933 15.617807743486367 H 0.0 **** 0.06
16718 H 96.56038072509116 95.85842552761892 14.032403322551204 H 0.0 **** 0.06
16719 H 95.06194401876041 96.75575815975105 14.37915745904263 H 0.0 **** 0.06
16720 H 95.01279269510246 94.9889835964334 14.166927550596384 H 0.0 **** 0.06
16721 C 3.856678483113342 54.7364303959601 19.839764598189902 C 0.0 **** -0.24
16722 H 4.04003330301984 53.824475108548775 19.2705054098318 H 0.0 **** 0.06
16723 H 4.656343698288623 55.45155161654502 19.646496443507147 H 0.0 **** 0.06
16724 H 3.8261946864432446 54.501483592969464 20.90334538213702 H 0.0 **** 0.06
16725 H 2.9021446179805537 55.16712667844304 19.53591224763815 H 0.0 **** 0.06
16726 C 67.65905520058413 22.24312208713514 78.10631264311559 C 0.0 **** -0.24
16727 H 68.52552904363102 22.727763940055027 77.65771630471062 H 0.0 **** 0.06
16728 H 67.19818837485502 22.91886864379095 78.82791561070408 H 0.0 **** 0.06
16729 H 67.9742007360793 21.33097527186026 78.61203075680001 H 0.0 **** 0.06
16730 H 66.93715032637527 21.997009539708685 77.32721419562017 H 0.0 **** 0.06
16731 C 33.960129949812824 69.11236387095371 79.0119720509341 C 0.0 **** -0.24
16732 H 33.479658252158856 68.63732132893554 79.86717840558674 H 0.0 **** 0.06
16733 H 33.297234712129864 69.87340921492958 78.59956289494406 H 0.0 **** 0.06
16734 H 34.17110638489709 68.36139245056748 78.25053638860638 H 0.0 **** 0.06
16735 H 34.89360141937681 69.57699087598189 79.3322582501749 H 0.0 **** 0.06
16736 C 63.833828863771664 44.72496661708391 84.106860912625 C 0.0 **** -0.24
16737 H 62.74867462309883 44.799231528869655 84.04332092232346 H 0.0 **** 0.06
16738 H 64.12742056978917 44.580813894153664 85.14727110461604 H 0.0 **** 0.06
16739 H 64.28474408853077 45.64122355977179 83.72615098746877 H 0.0 **** 0.06
16740 H 64.1761733107858 43.87757485559257 83.51214087702152 H 0.0 **** 0.06
16741 C 90.41503520209318 76.54456898992285 91.365700959517 C 0.0 **** -0.24
16742 H 89.56268930165098 75.89614865880091 91.16316967332637 H 0.0 **** 0.06
16743 H 91.29511319447784 76.1587445906271 90.8497952196754 H 0.0 **** 0.06
16744 H 90.60449877043763 76.57073335961081 92.43803126279272 H 0.0 **** 0.06
16745 H 90.19770488313983 77.55123607275354 91.010080025988 H 0.0 **** 0.06
16746 C 29.61297157869884 44.14070273728163 93.26908329845995 C 0.0 **** -0.24
16747 H 29.32353560548784 43.11039060987963 93.47554181270516 H 0.0 **** 0.06
16748 H 30.360962818258237 44.154499643697875 92.47564697200187 H 0.0 **** 0.06
16749 H 30.030004928916476 44.589285618840165 94.17054930161149 H 0.0 **** 0.06
16750 H 28.73716941793417 44.707828032144505 92.95252065299914 H 0.0 **** 0.06
16751 C 29.529266460897674 13.49026658487682 85.68284988428482 C 0.0 **** -0.24
16752 H 29.143202647913682 14.486396221385618 85.89612153182208 H 0.0 **** 0.06
16753 H 30.61877631729766 13.522575745975274 85.64825440798532 H 0.0 **** 0.06
16754 H 29.145138813175038 13.150226413268868 84.72012867331847 H 0.0 **** 0.06
16755 H 29.21023889241107 12.801689835090428 86.46446922168315 H 0.0 **** 0.06
16756 C 43.412908517786605 109.81446409517575 14.037223103094306 C 0.0 **** -0.24
16757 H 43.11733637447472 110.84152628342179 14.24835975387515 H 0.0 **** 0.06
16758 H 43.030476545328085 109.52019085989801 13.0595588090697 H 0.0 **** 0.06
16759 H 43.00245300841102 109.15437315638779 14.801078189110143 H 0.0 **** 0.06
16760 H 44.50020851174649 109.74110065669572 14.03943459692033 H 0.0 **** 0.06
16761 C 32.351321861539745 47.31642904121368 28.39077537673225 C 0.0 **** -0.24
16762 H 31.606117231543408 46.67871982222965 28.865947328251792 H 0.0 **** 0.06
16763 H 33.317406196311175 46.810992679721465 28.397145094067447 H 0.0 **** 0.06
16764 H 32.42780958904936 48.25552525879546 28.938562101177546 H 0.0 **** 0.06
16765 H 32.05339092859237 47.5181207005063 27.36109478878341 H 0.0 **** 0.06
16766 C 27.348256045145206 51.85959362287764 77.08626888597638 C 0.0 **** -0.24
16767 H 27.2396081417358 52.252850450424035 76.0758922008811 H 0.0 **** 0.06
16768 H 27.441540050026276 52.687405325293696 77.79022509935913 H 0.0 **** 0.06
16769 H 28.240357361447906 51.23556486955255 77.13830481916173 H 0.0 **** 0.06
16770 H 26.471974569124427 51.263872406645305 77.34088500391283 H 0.0 **** 0.06
16771 C 65.97547482517575 67.32238154890734 59.027078688885865 C 0.0 **** -0.24
16772 H 65.95789583300393 68.22054535315624 59.6436629064421 H 0.0 **** 0.06
16773 H 66.99685067073733 66.9492239739946 58.95746438970727 H 0.0 **** 0.06
16774 H 65.606705833847 67.55964259766796 58.02851868098273 H 0.0 **** 0.06
16775 H 65.338649966692 66.56081337182053 59.477158016359766 H 0.0 **** 0.06
16776 C 79.9741935025412 81.82768936497061 84.9157514640095 C 0.0 **** -0.24
16777 H 80.73439991142732 82.60687880756149 84.95798114739003 H 0.0 **** 0.06
16778 H 80.2107518949623 81.13347084822107 84.10968624241235 H 0.0 **** 0.06
16779 H 79.00002448548673 82.28018585952645 84.73120330742034 H 0.0 **** 0.06
16780 H 79.9507050970393 81.2899708371325 85.86376068707747 H 0.0 **** 0.06
16781 C 13.514294054850524 92.81587151420112 71.18919293871417 C 0.0 **** -0.24
16782 H 12.603148919950897 92.76349495422775 70.59424373060347 H 0.0 **** 0.06
16783 H 13.547853382741124 91.96995942076549 71.8775155566288 H 0.0 **** 0.06
16784 H 13.525372919941475 93.74622446500123 71.75677643032861 H 0.0 **** 0.06
16785 H 14.382157114021567 92.78214165073103 70.52941382164545 H 0.0 **** 0.06
16786 C 79.50716481916047 109.22720043144645 49.09505995337643 C 0.0 **** -0.24
16787 H 79.01607565869807 108.27160799644273 49.27863260905436 H 0.0 **** 0.06
16788 H 78.91669628453829 110.03014026462253 49.537593552052016 H 0.0 **** 0.06
16789 H 79.59536257869385 109.38983069441281 48.02073739513117 H 0.0 **** 0.06
16790 H 80.501079525167 109.21609378987972 49.54392259029519 H 0.0 **** 0.06
16791 C 30.218756401547353 51.4370002648135 15.639657552965843 C 0.0 **** -0.24
16792 H 29.738782517800814 52.13363382914413 14.952530111001579 H 0.0 **** 0.06
16793 H 29.513039947947448 51.15408959014654 16.420570618204266 H 0.0 **** 0.06
16794 H 31.089329726145422 51.91406690617019 16.090889148169822 H 0.0 **** 0.06
16795 H 30.533938310287226 50.54795657628312 15.093666656201151 H 0.0 **** 0.06
16796 C 39.66437519577917 69.50919969334075 72.06033514389722 C 0.0 **** -0.24
16797 H 39.22690702614031 70.46444742919843 72.35137943721435 H 0.0 **** 0.06
16798 H 39.007390063892984 69.01251827682071 71.34474404099137 H 0.0 **** 0.06
16799 H 39.782674132988376 68.88017083621787 72.94314911116959 H 0.0 **** 0.06
16800 H 40.63864818292015 69.6794501025386 71.6027126941195 H 0.0 **** 0.06
16801 C 14.745701558852858 53.591769688618456 2.0511610848981547 C 0.0 **** -0.24
16802 H 14.7092834910801 53.01710016995665 1.1251156666129702 H 0.0 **** 0.06
16803 H 15.605677701672533 54.26120872191419 2.0287599633135756 H 0.0 **** 0.06
16804 H 14.83634435812155 52.910462789385576 2.8965533748410905 H 0.0 **** 0.06
16805 H 13.831521465258504 54.177075897803604 2.1514795925538692 H 0.0 **** 0.06
16806 C 112.59967771918633 68.68447372620571 51.62610203252291 C 0.0 **** -0.24
16807 H 112.80153480509023 68.06007551293018 52.49663864733901 H 0.0 **** 0.06
16808 H 111.75006277618934 69.33559787640777 51.83584062115153 H 0.0 **** 0.06
16809 H 112.36920200463453 68.0509384547509 50.769712295055626 H 0.0 **** 0.06
16810 H 113.47652064450477 69.2914128548806 51.40422892750104 H 0.0 **** 0.06
16811 C 88.333424990342 97.17858836529422 46.3230734740037 C 0.0 **** -0.24
16812 H 88.85633679108219 97.92161959804429 45.72061663133029 H 0.0 **** 0.06
16813 H 87.48642633243045 97.64731102380148 46.822568866942056 H 0.0 **** 0.06
16814 H 89.0154664683158 96.77042454970604 47.068412367814275 H 0.0 **** 0.06
16815 H 87.97715144163956 96.37487307366246 45.678214331302236 H 0.0 **** 0.06
16816 C 98.82226502277547 61.046202051238595 19.5820280813015 C 0.0 **** -0.24
16817 H 98.07380524644185 60.95741892793998 18.79443813390455 H 0.0 **** 0.06
16818 H 98.4453735736572 61.69914095455175 20.368746562360656 H 0.0 **** 0.06
16819 H 99.73723213079484 61.467864563046106 19.16649435172465 H 0.0 **** 0.06
16820 H 99.03176414806558 60.05992000698811 19.996432775725935 H 0.0 **** 0.06
16821 C 76.91811659005086 95.1391342947876 93.19768995934876 C 0.0 **** -0.24
16822 H 77.78253948597632 95.07440634339525 92.53628555757729 H 0.0 **** 0.06
16823 H 76.66895048858441 96.18703214577528 93.36571303710818 H 0.0 **** 0.06
16824 H 77.15326535438004 94.66342186594278 94.14905689887348 H 0.0 **** 0.06
16825 H 76.07033112320468 94.63244681820203 92.7366151381932 H 0.0 **** 0.06
16826 C 100.44645695465275 60.71393036508704 52.85170416149893 C 0.0 **** -0.24
16827 H 100.04278865719056 59.70127926901745 52.84795299965097 H 0.0 **** 0.06
16828 H 100.12074103802786 61.23835848134195 51.95357072888476 H 0.0 **** 0.06
16829 H 101.53595878703834 60.670031387884535 52.8720781119637 H 0.0 **** 0.06
16830 H 100.08789763521159 61.244384000926516 53.73410292117638 H 0.0 **** 0.06
16831 C 45.040445661426645 107.13159578436432 40.5035077657531 C 0.0 **** -0.24
16832 H 44.5004588878665 107.00428456447824 41.44169459197782 H 0.0 **** 0.06
16833 H 44.339264549197466 107.40413576067321 39.71394366492652 H 0.0 **** 0.06
16834 H 45.53778133070816 106.19719555518384 40.24159578263967 H 0.0 **** 0.06
16835 H 45.7852543092652 107.91986310124328 40.617275769174746 H 0.0 **** 0.06
16836 C 4.327251862569199 25.055242580859357 94.70340353337696 C 0.0 **** -0.24
16837 H 5.24389699612118 25.57554656564156 94.42676872532488 H 0.0 **** 0.06
16838 H 3.494039761010413 25.456709617907507 94.12760657532871 H 0.0 **** 0.06
16839 H 4.137138949799748 25.197732690044035 95.76686862414681 H 0.0 **** 0.06
16840 H 4.4361502725975015 23.991090687086 94.49262804354078 H 0.0 **** 0.06
16841 C 23.935175827425695 82.88321712915157 64.9864442270135 C 0.0 **** -0.24
16842 H 23.75971450646574 81.8125664093929 64.87697822645043 H 0.0 **** 0.06
16843 H 23.04714883810408 83.43044850589445 64.66739662067346 H 0.0 **** 0.06
16844 H 24.783984891637516 83.17639784600362 64.36909376063784 H 0.0 **** 0.06
16845 H 24.147640007336406 83.11234783685396 66.0303419417719 H 0.0 **** 0.06
16846 C 12.66982351017161 81.99105242982114 69.32343928824861 C 0.0 **** -0.24
16847 H 12.622851433925817 82.21016947937096 70.38985135472822 H 0.0 **** 0.06
16848 H 11.853619248969693 82.50208807595561 68.81222055279088 H 0.0 **** 0.06
16849 H 12.578464860475094 80.91592082726754 69.1692023903714 H 0.0 **** 0.06
16850 H 13.62295715236067 82.33590484928959 68.92234021324228 H 0.0 **** 0.06
16851 C 65.6612249089909 20.396861094926862 73.52683245163269 C 0.0 **** -0.24
16852 H 64.62891210016141 20.660167103198575 73.29554772979927 H 0.0 **** 0.06
16853 H 65.98848934222531 20.953010712347037 74.40605031922587 H 0.0 **** 0.06
16854 H 66.29887785160949 20.648323049983134 72.68021629656022 H 0.0 **** 0.06
16855 H 65.72730643964056 19.327835720919495 73.72743736750851 H 0.0 **** 0.06
16856 C 56.14826469688646 69.02385091645269 4.146803093606309 C 0.0 **** -0.24
16857 H 55.76448036816849 70.04001943123691 4.245816317367655 H 0.0 **** 0.06
16858 H 57.11147554797121 69.04896731980094 3.6375817368169123 H 0.0 **** 0.06
16859 H 55.4455668471559 68.42497175822584 3.567893043820618 H 0.0 **** 0.06
16860 H 56.27106746773797 68.58452928968629 5.1364400681029565 H 0.0 **** 0.06
16861 C 69.76400682349833 83.16278772972859 29.790276782671583 C 0.0 **** -0.24
16862 H 69.77193406768859 84.19417315288507 29.439582351826573 H 0.0 **** 0.06
16863 H 68.81007859030285 82.69980535463554 29.537570152233798 H 0.0 **** 0.06
16864 H 69.90151088468477 83.14542186305638 30.870911497033717 H 0.0 **** 0.06
16865 H 70.57385446266986 82.61040377033737 29.31187605998032 H 0.0 **** 0.06
16866 C 61.36972180871584 89.59151377122663 38.987622744105835 C 0.0 **** -0.24
16867 H 60.68712313528613 89.53139158465893 39.834771912322864 H 0.0 **** 0.06
16868 H 62.362706333066114 89.87024160085218 39.34115344220717 H 0.0 **** 0.06
16869 H 61.0095995671291 90.34140566516285 38.2834618995918 H 0.0 **** 0.06
16870 H 61.41933311012019 88.62165713799382 38.49147429420813 H 0.0 **** 0.06
16871 C 24.140179355920935 31.078114698610506 76.79043577224246 C 0.0 **** -0.24
16872 H 24.433843961057136 30.18723292773663 76.23519153269208 H 0.0 **** 0.06
16873 H 23.35259141900545 30.820014862248684 77.49974192255524 H 0.0 **** 0.06
16874 H 23.770636615132787 31.83383269557936 76.09755422258317 H 0.0 **** 0.06
16875 H 25.001112669439976 31.47023017861906 77.33076123176309 H 0.0 **** 0.06
16876 C 71.6735129602393 19.63374847592138 91.30451244554234 C 0.0 **** -0.24
16877 H 72.09277023627322 20.590990946272953 90.99763873419568 H 0.0 **** 0.06
16878 H 70.6998393639251 19.79480859346777 91.76998521630466 H 0.0 **** 0.06
16879 H 72.34327351434729 19.155847465620997 92.01990873539506 H 0.0 **** 0.06
16880 H 71.5570485499602 18.99142746250043 90.43154729585703 H 0.0 **** 0.06
16881 C 64.35367837159959 69.1527058674271 91.09243316399943 C 0.0 **** -0.24
16882 H 64.87943317035581 70.00445558015673 90.6601546132126 H 0.0 **** 0.06
16883 H 63.774908904682036 68.65199198674927 90.3163726667515 H 0.0 **** 0.06
16884 H 63.684977676138374 69.50042758742728 91.87917982897 H 0.0 **** 0.06
16885 H 65.07787086921894 68.45523097887735 91.51292142206378 H 0.0 **** 0.06
16886 C 88.08763410810187 103.17773368611154 10.538067124570276 C 0.0 **** -0.24
16887 H 88.38389797074507 104.20389020845599 10.319186020515033 H 0.0 **** 0.06
16888 H 87.01452259608703 103.14140019783022 10.72504288690402 H 0.0 **** 0.06
16889 H 88.62303665854384 102.82539952709035 11.41999748865014 H 0.0 **** 0.06
16890 H 88.3311219904258 102.54037019409378 9.687141214471794 H 0.0 **** 0.06
16891 C 90.67365588758128 79.08164254576351 37.98222720033548 C 0.0 **** -0.24
16892 H 91.62974904965552 78.56043925833151 37.960220762501805 H 0.0 **** 0.06
16893 H 90.84647663119273 80.15589980321622 38.050606668654524 H 0.0 **** 0.06
16894 H 90.09910145137718 78.75082274594129 38.848394589410496 H 0.0 **** 0.06
16895 H 90.11765213305597 78.8602927621551 37.07091741909398 H 0.0 **** 0.06
16896 C 16.871046614074203 27.918552999649876 106.10637029880306 C 0.0 **** -0.24
16897 H 16.322392580249243 28.13564437396269 105.18956306217558 H 0.0 **** 0.06
16898 H 16.225873649712412 27.368728081334666 106.79284600230315 H 0.0 **** 0.06
16899 H 17.18564933550914 28.852675158597947 106.57147383236422 H 0.0 **** 0.06
16900 H 17.74826066767278 27.316116331461444 105.86990683714762 H 0.0 **** 0.06
16901 C 40.713420861467064 1.8379438186925654 83.73084069096095 C 0.0 **** -0.24
16902 H 40.048797892312116 2.6724258004633725 83.95377902926515 H 0.0 **** 0.06
16903 H 40.12222981308444 0.97284847611229 83.42941139684498 H 0.0 **** 0.06
16904 H 41.29503421149777 1.5892326547219113 84.61909128365602 H 0.0 **** 0.06
16905 H 41.38843472044974 2.116101227853733 82.92206935106088 H 0.0 **** 0.06
16906 C 96.76764680074962 52.62621199091325 32.493771867955566 C 0.0 **** -0.24
16907 H 96.41311745716311 51.68003786800449 32.085724290139176 H 0.0 **** 0.06
16908 H 96.26294113933258 53.45069927115634 31.99146993018629 H 0.0 **** 0.06
16909 H 97.84342015799788 52.70834029405228 32.33741638581458 H 0.0 **** 0.06
16910 H 96.55196432110253 52.66457777949313 33.56139610310845 H 0.0 **** 0.06
16911 C 104.55488069571214 104.2300554345328 97.20617485424933 C 0.0 **** -0.24
16912 H 104.36442207823373 105.04286006389566 97.90721947158272 H 0.0 **** 0.06
16913 H 105.62991594721817 104.06305897381532 97.12684717474178 H 0.0 **** 0.06
16914 H 104.15392182666344 104.49301566066418 96.2275655013546 H 0.0 **** 0.06
16915 H 104.07133609570624 103.32086718275042 97.56397193704981 H 0.0 **** 0.06
16916 C 105.03144043831597 108.08123481144963 27.296759532213542 C 0.0 **** -0.24
16917 H 105.62800308095197 107.34042959772566 26.76499078375153 H 0.0 **** 0.06
16918 H 105.10709971974754 107.90671366718817 28.37082448796926 H 0.0 **** 0.06
16919 H 103.98902693929486 107.99784924624555 26.98759874196358 H 0.0 **** 0.06
16920 H 105.40026312517145 109.07991593874921 27.063978107309282 H 0.0 **** 0.06
16921 C 7.484544001419309 49.27703821687345 107.77898040792657 C 0.0 **** -0.24
16922 H 7.750731764280431 50.32184508757376 107.93892747778155 H 0.0 **** 0.06
16923 H 6.965959082528357 49.17601467940062 106.82543107363797 H 0.0 **** 0.06
16924 H 6.833408639710456 48.940719398938484 108.585353608782 H 0.0 **** 0.06
16925 H 8.390990458666039 48.66983414842986 107.76687402736871 H 0.0 **** 0.06
16926 C 40.882740086165825 95.63247545099796 52.876128333025946 C 0.0 **** -0.24
16927 H 41.76966912372518 96.1928152460664 53.17190119564833 H 0.0 **** 0.06
16928 H 40.67851159665372 95.8073823610057 51.82052253459338 H 0.0 **** 0.06
16929 H 40.030726244693085 95.96252736483297 53.4714304434718 H 0.0 **** 0.06
16930 H 41.05269406743014 94.5685607946752 53.0434294893968 H 0.0 **** 0.06
16931 C 102.71695177894162 28.018490983934242 4.49244838756691 C 0.0 **** -0.24
16932 H 101.82205183440851 28.614169876627756 4.314083309073268 H 0.0 **** 0.06
16933 H 102.42869399877458 27.01431775573127 4.803666930715039 H 0.0 **** 0.06
16934 H 103.31453770889266 28.485224317823935 5.2755616919281465 H 0.0 **** 0.06
16935 H 103.30242418763373 27.960595819513088 3.5747869000521177 H 0.0 **** 0.06
16936 C 103.25055712359585 88.1169094839588 59.235794103940655 C 0.0 **** -0.24
16937 H 103.2556648172125 87.81394172687382 60.28257622503336 H 0.0 **** 0.06
16938 H 103.20970964621893 89.2044804448787 59.172057904223756 H 0.0 **** 0.06
16939 H 102.37997493811605 87.69012858768409 58.73747580190928 H 0.0 **** 0.06
16940 H 104.15846536882268 87.75799842016221 58.750520073353236 H 0.0 **** 0.06
16941 C 58.769952808696644 4.797058664793525 103.1382380806873 C 0.0 **** -0.24
16942 H 58.9196036976993 4.733287074178975 104.21624003372855 H 0.0 **** 0.06
16943 H 58.610956020668 3.797418277026239 102.73370438338739 H 0.0 **** 0.06
16944 H 59.65193375328178 5.241290153145826 102.67532397598413 H 0.0 **** 0.06
16945 H 57.89853317826302 5.418060324682628 102.92947461672506 H 0.0 **** 0.06
16946 C 32.92667594928599 100.1451833555821 62.6435842825789 C 0.0 **** -0.24
16947 H 33.95593681863443 100.01703674242759 62.97808820603029 H 0.0 **** 0.06
16948 H 32.92053552912586 100.59400373186804 61.64979154189621 H 0.0 **** 0.06
16949 H 32.397136546694185 100.79559561384787 63.33884627157329 H 0.0 **** 0.06
16950 H 32.433379635366805 99.17374997965948 62.606270071821484 H 0.0 **** 0.06
16951 C 107.60206975935581 60.23087132241462 5.873194922214793 C 0.0 **** -0.24
16952 H 106.57077715260078 59.97405502592506 5.631711333645853 H 0.0 **** 0.06
16953 H 107.70869406762989 61.31598368334604 5.895237607979524 H 0.0 **** 0.06
16954 H 108.26613220090285 59.81467957567721 5.115712984440648 H 0.0 **** 0.06
16955 H 107.86029102146755 59.82021267824353 6.849011306250475 H 0.0 **** 0.06
16956 C 41.68948642282746 83.71484475661572 4.890657922549565 C 0.0 **** -0.24
16957 H 42.434343687709315 84.36696944595215 4.4329085152119205 H 0.0 **** 0.06
16958 H 41.7150859342097 83.83997037589506 5.973501252476751 H 0.0 **** 0.06
16959 H 41.910912051968495 82.67793738390452 4.63885213810488 H 0.0 **** 0.06
16960 H 40.69973064996606 83.9765202922984 4.516734397129085 H 0.0 **** 0.06
16961 C 25.47943947759313 80.1680884523233 62.53129365539328 C 0.0 **** -0.24
16962 H 26.162771339339436 79.72666118785554 61.80513115023732 H 0.0 **** 0.06
16963 H 25.4108489911148 79.51915611689475 63.40522994760652 H 0.0 **** 0.06
16964 H 24.493342990561658 80.27658950289481 62.08089986301423 H 0.0 **** 0.06
16965 H 25.851694678585226 81.14703274611841 62.83227121291572 H 0.0 **** 0.06
16966 C 101.3634042035782 69.2812762888224 49.57883788400099 C 0.0 **** -0.24
16967 H 100.69971249674472 69.85706401509779 48.93278194507921 H 0.0 **** 0.06
16968 H 101.20641151137346 68.21643401475447 49.404305175269585 H 0.0 **** 0.06
16969 H 101.14723209399605 69.51467315633306 50.62168588200217 H 0.0 **** 0.06
16970 H 102.39888286186695 69.53835407135028 49.3555368419074 H 0.0 **** 0.06
16971 C 72.29649373995417 28.306206736634657 2.6962215602793833 C 0.0 **** -0.24
16972 H 71.81537398108625 28.93681186928695 3.444300681346647 H 0.0 **** 0.06
16973 H 71.55386218486495 27.97328675237143 1.9703971276094308 H 0.0 **** 0.06
16974 H 72.74260362916525 27.43906458164785 3.1844294127535306 H 0.0 **** 0.06
16975 H 73.07315004468597 28.87576133577064 2.1867690331212373 H 0.0 **** 0.06
16976 C 29.66043953434186 10.048804001831478 24.886888298496288 C 0.0 **** -0.24
16977 H 29.66789713680393 10.564672265856316 25.847209976134224 H 0.0 **** 0.06
16978 H 29.31064068923999 10.730092473150407 24.11095775799592 H 0.0 **** 0.06
16979 H 28.995262229859236 9.187288050703621 24.942221726574274 H 0.0 **** 0.06
16980 H 30.670354196527114 9.712914591836618 24.64760775824655 H 0.0 **** 0.06
16981 C 59.0287292828848 99.39358630362759 29.121570367695426 C 0.0 **** -0.24
16982 H 58.288644990514484 100.0504973868473 29.580138290965266 H 0.0 **** 0.06
16983 H 59.393903806126616 98.68373732937681 29.862603627858732 H 0.0 **** 0.06
16984 H 59.85982128444809 99.99047327620843 28.747008797058754 H 0.0 **** 0.06
16985 H 58.568977231570614 98.85204683276456 28.294195903538764 H 0.0 **** 0.06
16986 C 97.72366729099588 84.26270129564466 74.52882553681906 C 0.0 **** -0.24
16987 H 97.12362729023985 83.37255732562596 74.71614629190123 H 0.0 **** 0.06
16988 H 97.0914432108072 85.04527148495606 74.10816170849455 H 0.0 **** 0.06
16989 H 98.5212214189932 84.02284126844643 73.82521911050685 H 0.0 **** 0.06
16990 H 98.15890760351544 84.61084900360436 75.46623233513901 H 0.0 **** 0.06
16991 C 45.14180135975891 67.25545578370927 12.021639979674376 C 0.0 **** -0.24
16992 H 44.93731778411593 67.12937421064163 13.084651396024015 H 0.0 **** 0.06
16993 H 46.21015469969189 67.42062863062796 11.875176416264566 H 0.0 **** 0.06
16994 H 44.58580074724085 68.11323041656422 11.64322831467939 H 0.0 **** 0.06
16995 H 44.835208432158154 66.35811594603396 11.483886877554056 H 0.0 **** 0.06
16996 C 42.69641170692995 47.05726921611938 68.73121178361069 C 0.0 **** -0.24
16997 H 42.693226796063925 48.142195006958644 68.83668348530045 H 0.0 **** 0.06
16998 H 43.45901560910369 46.63165607653147 69.38405110482947 H 0.0 **** 0.06
16999 H 42.91528109118616 46.793146505607154 67.69628144170477 H 0.0 **** 0.06
17000 H 41.71943713990544 46.66260180029104 69.00786253963545 H 0.0 **** 0.06
17001 C 6.493920729751906 97.87353177665375 44.40777436357868 C 0.0 **** -0.24
17002 H 6.8352898550624985 96.83914207042025 44.43542210855722 H 0.0 **** 0.06
17003 H 7.350676879531477 98.53481993535638 44.27362768931667 H 0.0 **** 0.06
17004 H 5.992074245843682 98.11516612820697 45.34457974445084 H 0.0 **** 0.06
17005 H 5.799485241780147 98.0050301019102 43.578733434752365 H 0.0 **** 0.06
17006 C 76.47880711115403 11.588499962850534 68.4197380957861 C 0.0 **** -0.24
17007 H 77.23660545163187 12.351642731935883 68.60206823652828 H 0.0 **** 0.06
17008 H 76.95239779678619 10.60700969675321 68.38904387292149 H 0.0 **** 0.06
17009 H 75.9872597923127 11.78585198450942 67.46819793212174 H 0.0 **** 0.06
17010 H 75.74090031809374 11.611264653021621 69.22231194455185 H 0.0 **** 0.06
17011 C 38.94627051367411 54.92040027734305 51.425928835674526 C 0.0 **** -0.24
17012 H 38.92037959238721 54.025304456217896 50.80506614755284 H 0.0 **** 0.06
17013 H 39.896062690629975 55.43628715058989 51.28144007451056 H 0.0 **** 0.06
17014 H 38.840874158975936 54.63919633588523 52.474110301295546 H 0.0 **** 0.06
17015 H 38.12691487812887 55.58183436580211 51.143582054770825 H 0.0 **** 0.06
17016 C 39.27951487843143 92.5107019895477 73.9660833129156 C 0.0 **** -0.24
17017 H 39.471475679391915 92.13751369227086 74.97243463249538 H 0.0 **** 0.06
17018 H 38.74958210994731 93.46128763863888 74.02696497628145 H 0.0 **** 0.06
17019 H 38.67146679724186 91.78869564348233 73.42171145969075 H 0.0 **** 0.06
17020 H 40.22621080833869 92.65432138838784 73.44676685238488 H 0.0 **** 0.06
17021 C 104.6208248810176 33.28848765057535 49.849531297884155 C 0.0 **** -0.24
17022 H 104.56670953998858 33.62570436453629 48.81449081612553 H 0.0 **** 0.06
17023 H 104.39773193559444 32.22195555361739 49.895880922430564 H 0.0 **** 0.06
17024 H 103.89545273910161 33.8383796194795 50.44838221003496 H 0.0 **** 0.06
17025 H 105.62330582982466 33.46752410232577 50.238014600984656 H 0.0 **** 0.06
17026 C 100.36705288307746 60.02651758718065 7.638261160749906 C 0.0 **** -0.24
17027 H 101.09347671622623 59.51143565449402 8.266954580219732 H 0.0 **** 0.06
17028 H 100.49785798279709 59.711742883752436 6.602237810113621 H 0.0 **** 0.06
17029 H 100.52084815537009 61.10269406056992 7.71311811033182 H 0.0 **** 0.06
17030 H 99.35920788955735 59.77866856558006 7.969487144833153 H 0.0 **** 0.06
17031 C 24.927250611476794 102.87231873986627 61.558268795528704 C 0.0 **** -0.24
17032 H 24.00670037894335 102.65856101803502 62.10052633703759 H 0.0 **** 0.06
17033 H 25.015163192715505 103.94839577789878 61.40308480933572 H 0.0 **** 0.06
17034 H 24.905866034197416 102.36597927853688 60.59363498050857 H 0.0 **** 0.06
17035 H 25.781024805543808 102.51762409751962 62.136364612042485 H 0.0 **** 0.06
17036 C 72.99023147236855 32.247306757146234 66.21167386274703 C 0.0 **** -0.24
17037 H 73.74493064417962 32.42572875712995 66.97716527278709 H 0.0 **** 0.06
17038 H 72.26600704758548 31.519711354169807 66.57920665228897 H 0.0 **** 0.06
17039 H 73.46990430158698 31.861126709669627 65.31191312979473 H 0.0 **** 0.06
17040 H 72.48018932443773 33.18182300386648 65.9789470817579 H 0.0 **** 0.06
17041 C 21.051329421830122 96.94716717943157 111.02929837138704 C 0.0 **** -0.24
17042 H 20.33629370430489 96.69556507016506 110.24499180981525 H 0.0 **** 0.06
17043 H 20.985046089481163 96.21037032655943 111.83069551790504 H 0.0 **** 0.06
17044 H 20.822509326471845 97.93682034786616 111.42511320068712 H 0.0 **** 0.06
17045 H 22.059795513531807 96.94480530724667 110.61540591520651 H 0.0 **** 0.06
17046 C 45.96235635523724 33.00413217719668 10.395672208946728 C 0.0 **** -0.24
17047 H 45.99536566605658 32.634977993824975 11.420011938156758 H 0.0 **** 0.06
17048 H 44.987701869933524 33.455210650826444 10.203283625618614 H 0.0 **** 0.06
17049 H 46.12188041608031 32.17540586424363 9.705392412748118 H 0.0 **** 0.06
17050 H 46.74310148643265 33.751150202715024 10.252251488317054 H 0.0 **** 0.06
17051 C 59.40526024764483 77.7760286478836 27.172444686929794 C 0.0 **** -0.24
17052 H 58.91472528137871 77.293239004962 28.017860570571315 H 0.0 **** 0.06
17053 H 59.04264472631729 78.7993171495138 27.07815268476253 H 0.0 **** 0.06
17054 H 59.17939339631499 77.22401280842888 26.25915274746754 H 0.0 **** 0.06
17055 H 60.4829705944523 77.78470447703899 27.334143493939763 H 0.0 **** 0.06
17056 C 5.282394724597026 24.694677923154803 100.130820059987 C 0.0 **** -0.24
17057 H 4.637100035031779 25.298552073917094 99.49356256865093 H 0.0 **** 0.06
17058 H 4.7823378649835036 24.50710384444888 101.08079925402347 H 0.0 **** 0.06
17059 H 6.217013149383092 25.226974707628816 100.30987862300282 H 0.0 **** 0.06
17060 H 5.493808162708831 23.74547183172971 99.63756800071997 H 0.0 **** 0.06
17061 C 20.182845491415748 83.05613855445392 67.60042635670573 C 0.0 **** -0.24
17062 H 20.60617120652506 83.28501331622641 68.57973081149035 H 0.0 **** 0.06
17063 H 19.16224725508519 82.69413487537099 67.72288835563265 H 0.0 **** 0.06
17064 H 20.786211730523206 82.28868181722112 67.11497629571912 H 0.0 **** 0.06
17065 H 20.178649287954755 83.95769437203421 66.98828841711651 H 0.0 **** 0.06
17066 C 105.77122322908829 82.02256541798883 89.22425748983875 C 0.0 **** -0.24
17067 H 105.61880329305285 81.13610994717797 89.84050929771806 H 0.0 **** 0.06
17068 H 105.4395457401545 81.81623877088234 88.20584262292635 H 0.0 **** 0.06
17069 H 106.8300077693949 82.28107404029183 89.21619718288932 H 0.0 **** 0.06
17070 H 105.19687660140005 82.85274477523089 89.63413005181292 H 0.0 **** 0.06
17071 C 21.060206392194427 9.268695687158342 77.28997466783733 C 0.0 **** -0.24
17072 H 20.501527119510875 9.902538877713113 76.60030173764011 H 0.0 **** 0.06
17073 H 22.08963223322549 9.621787895983502 77.35513408718325 H 0.0 **** 0.06
17074 H 21.051647832996466 8.24148836929784 76.92577382525704 H 0.0 **** 0.06
17075 H 20.597571144402668 9.308762902785034 78.27628935156699 H 0.0 **** 0.06
17076 C 28.32168944762276 7.690853152957288 46.51081053983713 C 0.0 **** -0.24
17077 H 28.438935118533294 7.564030642824946 47.586911779268036 H 0.0 **** 0.06
17078 H 28.281362293571647 8.753685142358052 46.27342005198799 H 0.0 **** 0.06
17079 H 27.39801461313627 7.210510785391534 46.18805304839764 H 0.0 **** 0.06
17080 H 29.16838433063552 7.234371508394133 45.99756527079461 H 0.0 **** 0.06
17081 C 13.159543471833786 74.48467152904303 79.24722355381931 C 0.0 **** -0.24
17082 H 13.768673475066223 74.98326524759597 78.49346144606025 H 0.0 **** 0.06
17083 H 12.883458815022408 73.49176727331357 78.8929542187536 H 0.0 **** 0.06
17084 H 12.258312683093024 75.06930288601265 79.42972173733094 H 0.0 **** 0.06
17085 H 13.729636638150083 74.39544707693355 80.17235825237972 H 0.0 **** 0.06
17086 C 106.78817458806321 36.601834729715605 40.92453679325358 C 0.0 **** -0.24
17087 H 107.8132319712676 36.97415668176896 40.93169147321808 H 0.0 **** 0.06
17088 H 106.10672523889838 37.40871580256144 41.19340681183229 H 0.0 **** 0.06
17089 H 106.69351629921678 35.79012865606887 41.6459967443553 H 0.0 **** 0.06
17090 H 106.54217743066238 36.23426204312612 39.92912028937138 H 0.0 **** 0.06
17091 C 109.2959062948049 70.94931726261927 67.17985009194365 C 0.0 **** -0.24
17092 H 110.09315146915436 70.92275355220329 67.92283185734894 H 0.0 **** 0.06
17093 H 109.62029123092825 70.42398971571038 66.28119898659219 H 0.0 **** 0.06
17094 H 109.06441431421457 71.98456090883008 66.93211764463683 H 0.0 **** 0.06
17095 H 108.40637397535073 70.4647095269001 67.58349106845307 H 0.0 **** 0.06
17096 C 111.20955473885357 104.10369188259574 64.34077223524426 C 0.0 **** -0.24
17097 H 110.21251544247878 104.53028679310032 64.23056415940837 H 0.0 **** 0.06
17098 H 111.8609175823176 104.82591239755735 64.83295651445056 H 0.0 **** 0.06
17099 H 111.61273132185158 103.86212492658893 63.357644369107966 H 0.0 **** 0.06
17100 H 111.15209934555065 103.1968703874764 64.94282708584038 H 0.0 **** 0.06
17101 C 23.069374416587323 15.394480991627233 2.811145230295571 C 0.0 **** -0.24
17102 H 23.44946092920813 16.145510137192232 3.503953195977795 H 0.0 **** 0.06
17103 H 21.984895755135312 15.33519947304498 2.899672552860869 H 0.0 **** 0.06
17104 H 23.507113991531185 14.425341958485689 3.050299960977066 H 0.0 **** 0.06
17105 H 23.337021248165826 15.671798168243953 1.7916582343303666 H 0.0 **** 0.06
17106 C 20.26823026731668 59.3166511506416 81.62249175236107 C 0.0 **** -0.24
17107 H 21.22177262380967 59.836329806498135 81.71857236207123 H 0.0 **** 0.06
17108 H 20.409684959050935 58.256001347377556 81.82987533090403 H 0.0 **** 0.06
17109 H 19.887313456524936 59.44124882016137 80.60900017576324 H 0.0 **** 0.06
17110 H 19.553747886117094 59.735184583146015 82.33210301564591 H 0.0 **** 0.06
17111 C 5.331549933249079 57.03777028377433 13.322621000385453 C 0.0 **** -0.24
17112 H 4.593078259277505 56.66762695604426 14.034032915723884 H 0.0 **** 0.06
17113 H 6.165943289619591 57.48282693980588 13.86529284222226 H 0.0 **** 0.06
17114 H 4.872630183906907 57.788369524009745 12.680389156553076 H 0.0 **** 0.06
17115 H 5.694482438982021 56.20970440516014 12.712342878607487 H 0.0 **** 0.06
17116 C 112.11315266692962 47.63780084533147 65.19564620081252 C 0.0 **** -0.24
17117 H 113.12291954239497 48.02858212398837 65.31994109753234 H 0.0 **** 0.06
17118 H 111.97518158695134 47.311477848767254 64.16428557692055 H 0.0 **** 0.06
17119 H 111.38979473184943 48.4194911689853 65.43038221903319 H 0.0 **** 0.06
17120 H 111.96508423794184 46.79284895125949 65.86731901171825 H 0.0 **** 0.06
17121 C 28.311104252381597 48.324335580174186 0.9175155467979721 C 0.0 **** -0.24
17122 H 29.05268297020359 47.961406484070686 0.20470353788556395 H 0.0 **** 0.06
17123 H 28.727236317151835 49.160836259233214 1.4788622338157325 H 0.0 **** 0.06
17124 H 28.045345373342627 47.520569044790896 1.6048546343578778 H 0.0 **** 0.06
17125 H 27.421295179576305 48.65255625711218 0.3809269222739431 H 0.0 **** 0.06
17126 C 55.63972002265723 63.522910465167286 33.97701110566217 C 0.0 **** -0.24
17127 H 55.55094033649439 63.641609683443136 35.05719492815709 H 0.0 **** 0.06
17128 H 56.6038861872793 63.0732602804278 33.73870723297236 H 0.0 **** 0.06
17129 H 55.56495232460824 64.49861338369237 33.49724973139695 H 0.0 **** 0.06
17130 H 54.83822634806074 62.878564632109345 33.61515650785273 H 0.0 **** 0.06
17131 C 29.5067068111409 75.67932889108823 52.59876864690631 C 0.0 **** -0.24
17132 H 29.942670033240432 75.13632589094681 53.437861163256684 H 0.0 **** 0.06
17133 H 28.421344516930304 75.57540793715151 52.62587210034607 H 0.0 **** 0.06
17134 H 29.887517046820875 75.27011753394055 51.66360986021999 H 0.0 **** 0.06
17135 H 29.772469021578303 76.7337459698519 52.670192932267014 H 0.0 **** 0.06
17136 C 39.9198310846326 75.15653612166565 19.795001241439905 C 0.0 **** -0.24
17137 H 39.59135673981475 75.07476666577756 20.831699760754645 H 0.0 **** 0.06
17138 H 40.788576409961344 74.51714198495941 19.638876045125386 H 0.0 **** 0.06
17139 H 40.18560927809423 76.19087573207796 19.57844669488307 H 0.0 **** 0.06
17140 H 39.11365660647108 74.84197221839648 19.13299701536249 H 0.0 **** 0.06
17141 C 109.39245035289275 95.94294806187594 39.571561179997104 C 0.0 **** -0.24
17142 H 108.74559342386026 96.58020001969024 40.17396254583082 H 0.0 **** 0.06
17143 H 109.87028326397133 96.5409674703846 38.7952333393751 H 0.0 **** 0.06
17144 H 108.79830342566916 95.15432209676402 39.10922803253416 H 0.0 **** 0.06
17145 H 110.15667482576089 95.49541727012314 40.20749480157173 H 0.0 **** 0.06
17146 C 104.47714178778523 54.92778088340797 109.89009601235134 C 0.0 **** -0.24
17147 H 104.07130613709026 55.072592884681214 108.88829994290903 H 0.0 **** 0.06
17148 H 105.3152249950142 55.60793114547645 110.04339496982357 H 0.0 **** 0.06
17149 H 104.81963183857275 53.89833569400692 109.99748588362891 H 0.0 **** 0.06
17150 H 103.70187150076 55.13216637660579 110.62825244473363 H 0.0 **** 0.06
17151 C 111.95552342013471 18.0718921909901 56.03712426147246 C 0.0 **** -0.24
17152 H 111.94580206202929 19.039400178617086 55.53639468339466 H 0.0 **** 0.06
17153 H 111.4118578626773 18.144508251959763 56.97947775293261 H 0.0 **** 0.06
17154 H 112.98603788148043 17.77459742727939 56.233208930224265 H 0.0 **** 0.06
17155 H 111.47859421517575 17.327688063772683 55.39915000486204 H 0.0 **** 0.06
17156 C 48.95683381799804 104.89296008640119 55.700330182237735 C 0.0 **** -0.24
17157 H 48.38483074598716 105.78191343584263 55.96578602774224 H 0.0 **** 0.06
17158 H 48.32900773014102 104.21498750055554 55.12260712046091 H 0.0 **** 0.06
17159 H 49.29305373218573 104.39302604535092 56.60935305409254 H 0.0 **** 0.06
17160 H 49.822602136362725 105.18376709286267 55.10495389649253 H 0.0 **** 0.06
17161 C 107.65013105846147 71.14322682302071 15.591870852167148 C 0.0 **** -0.24
17162 H 108.12521906031421 71.72378003213356 16.38191811962514 H 0.0 **** 0.06
17163 H 107.69341777310564 70.08348569664668 15.84210347050913 H 0.0 **** 0.06
17164 H 108.17302503061745 71.3162421076704 14.650501065206356 H 0.0 **** 0.06
17165 H 106.60896705612069 71.4510838158572 15.490480333621377 H 0.0 **** 0.06
17166 C 89.67803699112594 60.203886882626556 46.064560342689695 C 0.0 **** -0.24
17167 H 89.68176748179795 59.29781435847156 46.669386747558654 H 0.0 **** 0.06
17168 H 90.5878156818751 60.77357305863442 46.25801026621096 H 0.0 **** 0.06
17169 H 88.80850067370326 60.809141993821335 46.3233542885938 H 0.0 **** 0.06
17170 H 89.6336917567829 59.9359092303173 45.0095068841026 H 0.0 **** 0.06
17171 C 40.3129223167887 62.327938174292456 19.738743444214236 C 0.0 **** -0.24
17172 H 40.882288405046 62.02862994148222 20.619267313720968 H 0.0 **** 0.06
17173 H 39.250265767888465 62.34641936674359 19.982972758943376 H 0.0 **** 0.06
17174 H 40.48829198360828 61.61532893258351 18.93336968829331 H 0.0 **** 0.06
17175 H 40.63128491224791 63.32101522035566 19.421526432238878 H 0.0 **** 0.06
17176 C 15.6868940337028 98.5121818144342 93.78683618218929 C 0.0 **** -0.24
17177 H 16.656056939605264 98.88242925028098 93.45510678727356 H 0.0 **** 0.06
17178 H 14.915703171716416 98.83231384469968 93.08524612835933 H 0.0 **** 0.06
17179 H 15.464595828009806 98.90958359190563 94.77762969072162 H 0.0 **** 0.06
17180 H 15.710866531232853 97.42270554181053 93.82940648822725 H 0.0 **** 0.06
17181 C 72.82374630629181 12.504942091834778 75.87734580804852 C 0.0 **** -0.24
17182 H 73.00617807770448 11.502808329626646 75.4864979007387 H 0.0 **** 0.06
17183 H 73.26942912430968 13.241785143990171 75.20904457559448 H 0.0 **** 0.06
17184 H 73.27136058833375 12.594598592705722 76.86708544512305 H 0.0 **** 0.06
17185 H 71.75001028506733 12.677490384922919 75.9460436479767 H 0.0 **** 0.06
17186 C 55.56816671675832 93.75535725922774 106.26639743107845 C 0.0 **** -0.24
17187 H 55.65433854435 94.8352396201874 106.39227422342022 H 0.0 **** 0.06
17188 H 56.55804040764849 93.3293445447049 106.0997340271962 H 0.0 **** 0.06
17189 H 54.92992302871444 93.53968132901554 105.40983613893047 H 0.0 **** 0.06
17190 H 55.131054397818886 93.31903143598313 107.16517218095751 H 0.0 **** 0.06
17191 C 58.74600590552507 105.83964972220193 60.549648838483 C 0.0 **** -0.24
17192 H 58.67298462968324 105.1068573566472 61.35369403113862 H 0.0 **** 0.06
17193 H 59.27483203440289 106.72146200227247 60.91012542061802 H 0.0 **** 0.06
17194 H 57.74402318868306 106.12252970693757 60.22601637009996 H 0.0 **** 0.06
17195 H 59.28999050197933 105.40504422881571 59.71096640837575 H 0.0 **** 0.06
17196 C 9.358412432434648 46.162499547650725 53.24505776446273 C 0.0 **** -0.24
17197 H 9.78968716262493 45.683944877443935 52.36579391028144 H 0.0 **** 0.06
17198 H 9.156406500262307 47.2102078775568 53.02500054079499 H 0.0 **** 0.06
17199 H 10.060988669706532 46.093980665977654 54.07578768532116 H 0.0 **** 0.06
17200 H 8.429735019720127 45.660238189676136 53.512499487234976 H 0.0 **** 0.06
17201 C 10.327031287461097 31.06362332049565 9.544869063139146 C 0.0 **** -0.24
17202 H 10.9834416922791 31.65238711833399 10.184702551277866 H 0.0 **** 0.06
17203 H 9.304617997286726 31.432932244074493 9.635882690993128 H 0.0 **** 0.06
17204 H 10.364147988097194 30.018152963168006 9.850632794502701 H 0.0 **** 0.06
17205 H 10.65458502016882 31.151444403796745 8.50847123547561 H 0.0 **** 0.06
17206 C 14.001100206472074 0.5041555994033162 102.9172411610677 C 0.0 **** -0.24
17207 H 12.914042568247197 0.5385959926508939 102.99064381499056 H 0.0 **** 0.06
17208 H 14.316369740371528 0.9709925285652448 101.98453233969556 H 0.0 **** 0.06
17209 H 14.334398926200095 -0.5335488896630967 102.93615560967524 H 0.0 **** 0.06
17210 H 14.439219232875615 1.0414587365718244 103.7590805264968 H 0.0 **** 0.06
17211 C 44.03822812158097 23.18056846590295 49.404720632654175 C 0.0 **** -0.24
17212 H 44.29298341778417 24.228527373838517 49.56363970452179 H 0.0 **** 0.06
17213 H 43.921271883303916 22.993727576224757 48.336600701441796 H 0.0 **** 0.06
17214 H 43.10546269618425 22.950875138724 49.91814923612719 H 0.0 **** 0.06
17215 H 44.83460625582086 22.5493365369054 49.79850037812173 H 0.0 **** 0.06
17216 C 19.746001064609516 11.45561253030651 110.01979436906153 C 0.0 **** -0.24
17217 H 19.057649153388923 12.232253215139878 109.68637528387865 H 0.0 **** 0.06
17218 H 20.616244798394717 11.436223438187056 109.36305366832583 H 0.0 **** 0.06
17219 H 19.245510114254785 10.48758000876066 109.98862931018172 H 0.0 **** 0.06
17220 H 20.064879187001793 11.666609921047069 111.04018360551343 H 0.0 **** 0.06
17221 C 47.318108447083496 101.0287716465204 53.823460906186796 C 0.0 **** -0.24
17222 H 47.94663186104953 101.79348946098986 54.27990189476506 H 0.0 **** 0.06
17223 H 46.27061905583947 101.24387967700557 54.038325955009924 H 0.0 **** 0.06
17224 H 47.57956577657977 100.05234943710298 54.231864075969895 H 0.0 **** 0.06
17225 H 47.47455944940348 101.02491183886124 52.74457231250463 H 0.0 **** 0.06
17226 C 54.57576519014437 49.86148465369331 36.46722561993607 C 0.0 **** -0.24
17227 H 54.567302544752486 49.96150400366446 37.552437527150886 H 0.0 **** 0.06
17228 H 54.7643765355161 48.821703816361946 36.20001229412827 H 0.0 **** 0.06
17229 H 55.36062922648418 50.49204710019137 36.050330193419 H 0.0 **** 0.06
17230 H 53.61075245382476 50.17068369455569 36.06612246504609 H 0.0 **** 0.06
17231 C 70.19883710294772 33.4204822629017 61.480607660542915 C 0.0 **** -0.24
17232 H 69.19600368909317 33.066931432873496 61.24375270713483 H 0.0 **** 0.06
17233 H 70.74377780477906 32.64059820347192 62.01225967057607 H 0.0 **** 0.06
17234 H 70.1310691257743 34.3093160603651 62.10908714044001 H 0.0 **** 0.06
17235 H 70.72491876661317 33.667661585066 60.55880625798065 H 0.0 **** 0.06
17236 C 92.39752378263898 70.78398354735054 87.76158886854515 C 0.0 **** -0.24
17237 H 92.63908093206538 70.75315850334056 88.82437407271061 H 0.0 **** 0.06
17238 H 93.15263861050116 71.36707189891501 87.23443238353514 H 0.0 **** 0.06
17239 H 91.41913512856445 71.24638882227825 87.62540708408184 H 0.0 **** 0.06
17240 H 92.37774531451964 69.76921367639056 87.36474093228856 H 0.0 **** 0.06
17241 C 41.168875392060556 50.434852306253525 106.63308743154818 C 0.0 **** -0.24
17242 H 40.3610146477115 49.70798125412767 106.5515469251296 H 0.0 **** 0.06
17243 H 41.07109890273776 51.178109148727074 105.84168208286985 H 0.0 **** 0.06
17244 H 42.127771117469194 49.92418436200449 106.53600644415812 H 0.0 **** 0.06
17245 H 41.11753402813508 50.927646181452566 107.6034459181246 H 0.0 **** 0.06
17246 C 40.21127441882151 53.621283966755755 94.1004273051106 C 0.0 **** -0.24
17247 H 39.12900929708675 53.716627341155146 94.18432723743481 H 0.0 **** 0.06
17248 H 40.68784357393813 54.4940176483034 94.54908559730447 H 0.0 **** 0.06
17249 H 40.49062427910108 53.55478602251215 93.04927316423175 H 0.0 **** 0.06
17250 H 40.53778783581581 52.721216355544975 94.62160931580831 H 0.0 **** 0.06
17251 C 35.588324624099016 87.92423637348423 103.74367650133274 C 0.0 **** -0.24
17252 H 35.696206203706595 88.09370354528181 104.81541102140349 H 0.0 **** 0.06
17253 H 35.883033040948874 88.82257508130226 103.20201622305248 H 0.0 **** 0.06
17254 H 34.54950156142405 87.68669053328227 103.51704918149088 H 0.0 **** 0.06
17255 H 36.22510032079407 87.09180676191062 103.4424654407492 H 0.0 **** 0.06
17256 C 52.555706561555326 62.554111427112446 18.913987923521717 C 0.0 **** -0.24
17257 H 51.47035347006274 62.51702347991346 19.007868406485173 H 0.0 **** 0.06
17258 H 53.000478849943015 62.70322624208302 19.898142282526493 H 0.0 **** 0.06
17259 H 52.835689541539175 63.379969575467726 18.25936109201072 H 0.0 **** 0.06
17260 H 52.916840737572926 61.617065871408954 18.490667597108896 H 0.0 **** 0.06
17261 C 90.69862342774167 94.80509963365466 19.391219822450466 C 0.0 **** -0.24
17262 H 91.43473724430314 95.43250118156158 19.89326275362194 H 0.0 **** 0.06
17263 H 90.75720821518047 93.7894363572473 19.78516453952915 H 0.0 **** 0.06
17264 H 90.90085153899537 94.79269877294234 18.321137915666526 H 0.0 **** 0.06
17265 H 89.7003707957007 95.20553848670735 19.567995945506823 H 0.0 **** 0.06
17266 C 112.07859788488989 10.93904465838753 14.02711403052517 C 0.0 **** -0.24
17267 H 112.53107196527465 11.851171585622115 14.414764648096636 H 0.0 **** 0.06
17268 H 112.38400145574771 10.09281047818957 14.642470640751768 H 0.0 **** 0.06
17269 H 112.40808694425401 10.778921165073772 12.999759220967732 H 0.0 **** 0.06
17270 H 110.9930023809004 11.033876868689411 14.050236315682014 H 0.0 **** 0.06
17271 C 29.0761825901385 109.06226124260863 21.2585824598836 C 0.0 **** -0.24
17272 H 28.682637907687422 110.0784353355201 21.28368597274823 H 0.0 **** 0.06
17273 H 28.994925182742065 108.61653862864094 22.250550726112465 H 0.0 **** 0.06
17274 H 30.122914432919174 109.08582551992028 20.95467689909674 H 0.0 **** 0.06
17275 H 28.50425283720506 108.46824548635308 20.54541624157713 H 0.0 **** 0.06
17276 C 37.47822672176122 49.721095415233606 111.30513712171545 C 0.0 **** -0.24
17277 H 38.14309002814999 50.366638082631255 111.8785321049278 H 0.0 **** 0.06
17278 H 36.49260137795673 49.707974872378315 111.77112742304689 H 0.0 **** 0.06
17279 H 37.88341449896709 48.70906343628147 111.28305608430973 H 0.0 **** 0.06
17280 H 37.39358353712067 50.100444603588414 110.2864599636581 H 0.0 **** 0.06
17281 C 25.633471822109584 22.552208553719154 76.6384658499179 C 0.0 **** -0.24
17282 H 25.723116739389354 21.473696986989097 76.76804198152948 H 0.0 **** 0.06
17283 H 26.584876277126227 23.027215498248694 76.87592806499163 H 0.0 **** 0.06
17284 H 24.85909321061945 22.93528766953456 77.30426659905129 H 0.0 **** 0.06
17285 H 25.364465430580424 22.772011187320985 75.6052302708558 H 0.0 **** 0.06
17286 C 46.96701288206998 12.423893815253876 85.03389547544913 C 0.0 **** -0.24
17287 H 46.26736358365986 12.865718156297845 84.32477808733148 H 0.0 **** 0.06
17288 H 46.492913175400304 12.346547277045815 86.01238991929898 H 0.0 **** 0.06
17289 H 47.85388487349246 13.052515692513651 85.10779366877665 H 0.0 **** 0.06
17290 H 47.253082161047246 11.430026210479397 84.68929432045576 H 0.0 **** 0.06
17291 C 47.31919507572229 101.16014505940865 59.3555912251155 C 0.0 **** -0.24
17292 H 46.29538903403744 101.26687073576983 59.71279866571292 H 0.0 **** 0.06
17293 H 48.0065648539906 101.56960221938772 60.09666010218941 H 0.0 **** 0.06
17294 H 47.43403267827097 101.70007883180745 58.41560013614953 H 0.0 **** 0.06
17295 H 47.54115034075022 100.10539317214699 59.197203613743135 H 0.0 **** 0.06
17296 C 56.389018726313644 62.098729555127996 83.91126358214635 C 0.0 **** -0.24
17297 H 56.68264031133726 61.14027643898867 83.48406651331862 H 0.0 **** 0.06
17298 H 57.241783782157 62.777624441628355 83.90178267262442 H 0.0 **** 0.06
17299 H 56.051851783548486 61.95126621198984 84.93756199859547 H 0.0 **** 0.06
17300 H 55.57796989273732 62.52671848549901 83.32079534317393 H 0.0 **** 0.06
17301 C 51.190973140363155 67.06079674557995 61.330487466282705 C 0.0 **** -0.24
17302 H 50.17742118655948 66.8117454105174 61.64447989925975 H 0.0 **** 0.06
17303 H 51.769670469012915 66.14521220431692 61.212302503279545 H 0.0 **** 0.06
17304 H 51.65994283898636 67.69279174895848 62.08580476818611 H 0.0 **** 0.06
17305 H 51.15603906651825 67.59446103810563 60.38117436059116 H 0.0 **** 0.06
17306 C 31.007176863127953 39.76627459950214 106.62662307448181 C 0.0 **** -0.24
17307 H 31.854599618916524 39.48445009234237 107.2516262858341 H 0.0 **** 0.06
17308 H 30.241041078982363 38.992354396932086 106.68280959494138 H 0.0 **** 0.06
17309 H 31.33831761582306 39.87653638042002 105.59388567039903 H 0.0 **** 0.06
17310 H 30.595062011416957 40.712968792698234 106.97883033962509 H 0.0 **** 0.06
17311 C 88.50322072168726 104.04903681672522 78.07513602701991 C 0.0 **** -0.24
17312 H 88.48846648242713 103.89409105945276 79.15427899836297 H 0.0 **** 0.06
17313 H 88.74816617440652 103.1113235330314 77.57660227930424 H 0.0 **** 0.06
17314 H 89.25398939219318 104.7993957109056 77.82666803813652 H 0.0 **** 0.06
17315 H 87.52354666477811 104.39177973967085 77.74406753093314 H 0.0 **** 0.06
17316 C 33.75993943109941 2.3679887195797846 92.53446866341275 C 0.0 **** -0.24
17317 H 34.76068574839081 2.795002860679105 92.47227462240977 H 0.0 **** 0.06
17318 H 33.32692796051748 2.3092958700200654 91.53601556422828 H 0.0 **** 0.06
17319 H 33.13409450894869 2.9992045610837295 93.16604932809278 H 0.0 **** 0.06
17320 H 33.81722542994257 1.367646104322617 92.9648283002924 H 0.0 **** 0.06
17321 C 52.32493009125426 67.25713021404397 39.35383465148129 C 0.0 **** -0.24
17322 H 51.6269451126185 66.72366404778242 38.709102015647034 H 0.0 **** 0.06
17323 H 52.181216644122 66.93859399241938 40.38681411430747 H 0.0 **** 0.06
17324 H 52.14575546017767 68.32909805182814 39.274753931352166 H 0.0 **** 0.06
17325 H 53.34647369544132 67.03508353876347 39.04420040918171 H 0.0 **** 0.06
17326 C 92.53517589843813 71.16588885722331 66.00240947487856 C 0.0 **** -0.24
17327 H 92.71014387506847 70.10115333577176 66.16156333586278 H 0.0 **** 0.06
17328 H 93.33075830319996 71.73910059789216 66.47794948610269 H 0.0 **** 0.06
17329 H 91.57571127791283 71.44506739142062 66.4369602024984 H 0.0 **** 0.06
17330 H 92.52502699599626 71.37473565313059 64.93222469779349 H 0.0 **** 0.06
17331 C 15.930726912849035 38.83717027962197 102.0458027132967 C 0.0 **** -0.24
17332 H 16.509731848331555 38.988598121903266 102.95653607447929 H 0.0 **** 0.06
17333 H 15.321577820858778 39.71978392588741 101.85021146221592 H 0.0 **** 0.06
17334 H 15.28402425271642 37.96847580130263 102.1676958644145 H 0.0 **** 0.06
17335 H 16.608265253032368 38.67073985759015 101.20817742877355 H 0.0 **** 0.06
17336 C 60.82182037197588 63.07440283359847 84.55177662238262 C 0.0 **** -0.24
17337 H 61.14158965551518 63.48470348152338 83.59448078952951 H 0.0 **** 0.06
17338 H 61.03643871950623 63.79193031722636 85.34502234769388 H 0.0 **** 0.06
17339 H 61.35935314628566 62.145936846097044 84.74672755724342 H 0.0 **** 0.06
17340 H 59.75043505767653 62.874788688892636 84.5221604298967 H 0.0 **** 0.06
17341 C 74.36292044122013 83.60802002415787 21.559980796936657 C 0.0 **** -0.24
17342 H 73.8709297447466 83.98830083466086 22.454837216517916 H 0.0 **** 0.06
17343 H 73.89476425435419 82.67050844789773 21.260072118456605 H 0.0 **** 0.06
17344 H 75.41817936050492 83.43543027938642 21.77073602101146 H 0.0 **** 0.06
17345 H 74.2667778940637 84.33586179454699 20.754429217762947 H 0.0 **** 0.06
17346 C 97.54249561353194 37.33607134898182 38.1320898432154 C 0.0 **** -0.24
17347 H 96.99677173693027 38.05997170709435 37.526027823639794 H 0.0 **** 0.06
17348 H 98.46707187044123 37.06097414433799 37.624628850517254 H 0.0 **** 0.06
17349 H 96.92831342400729 36.44671342532169 38.276142466393395 H 0.0 **** 0.06
17350 H 97.77653752459173 37.77721033659023 39.101571268308135 H 0.0 **** 0.06
17351 C 37.09148589170749 81.63469941564006 35.33968043387026 C 0.0 **** -0.24
17352 H 37.252996021395575 80.55679477407284 35.31459100890587 H 0.0 **** 0.06
17353 H 36.79473356328947 81.9345828495293 36.34489403846783 H 0.0 **** 0.06
17354 H 36.30393756569708 81.9000197591377 34.63441797585591 H 0.0 **** 0.06
17355 H 38.01349824956296 82.14740499543305 35.06419062723649 H 0.0 **** 0.06
17356 C 46.95772073017541 68.86811679532394 8.5471493206514 C 0.0 **** -0.24
17357 H 46.13056272221738 69.5781844263301 8.540367161367811 H 0.0 **** 0.06
17358 H 46.562445929875324 67.85193474594598 8.552180159113163 H 0.0 **** 0.06
17359 H 47.56394335665126 69.02689807955775 9.438597008727399 H 0.0 **** 0.06
17360 H 47.571114324309235 69.01662478287005 7.658751867347519 H 0.0 **** 0.06
17361 C 60.460678781490344 3.8529775002375573 18.711203396111756 C 0.0 **** -0.24
17362 H 59.526876115996686 4.147386723017092 19.189379238841838 H 0.0 **** 0.06
17363 H 61.29550000304374 4.34409012090785 19.211604570383287 H 0.0 **** 0.06
17364 H 60.440524239098636 4.150000864047001 17.66200733177419 H 0.0 **** 0.06
17365 H 60.57889811066099 2.772274100901285 18.779881325982814 H 0.0 **** 0.06
17366 C 3.161264733479655 61.6122115259011 65.42655517353722 C 0.0 **** -0.24
17367 H 3.0735941013639376 60.99163250568665 66.31695103393804 H 0.0 **** 0.06
17368 H 4.203896932971034 61.894264719123385 65.28043030909728 H 0.0 **** 0.06
17369 H 2.5553181245522723 62.510558001335994 65.54890617398573 H 0.0 **** 0.06
17370 H 2.8107584937367562 61.053438361163444 64.55863736016303 H 0.0 **** 0.06
17371 C 107.84562378702702 94.8450714722598 24.70746112119285 C 0.0 **** -0.24
17372 H 106.93038624540752 94.7913390952449 24.117696355448658 H 0.0 **** 0.06
17373 H 108.48442289182562 93.9953464040762 24.465666936104725 H 0.0 **** 0.06
17374 H 107.59595376690267 94.82272082379649 25.767724133986604 H 0.0 **** 0.06
17375 H 108.37198594540322 95.77196231492576 24.477094676281325 H 0.0 **** 0.06
17376 C 19.522027287037474 52.6514220461664 5.529462785926995 C 0.0 **** -0.24
17377 H 20.545866827743623 52.58258031832128 5.16229690544526 H 0.0 **** 0.06
17378 H 19.482186729258785 52.30616604187642 6.562451361414077 H 0.0 **** 0.06
17379 H 18.8726661527063 52.03112709795374 4.912858698216041 H 0.0 **** 0.06
17380 H 19.188772158181678 53.68847710639423 5.480226012544108 H 0.0 **** 0.06
17381 C 79.72173028244458 41.391317677463064 16.59355340692906 C 0.0 **** -0.24
17382 H 78.77377862796374 40.85663511622904 16.54012526234277 H 0.0 **** 0.06
17383 H 80.06988139198253 41.41136529254018 17.62667795714225 H 0.0 **** 0.06
17384 H 79.58497265988805 42.41164206957288 16.235960271006434 H 0.0 **** 0.06
17385 H 80.46029903358817 40.88447078030898 15.972236394477932 H 0.0 **** 0.06
17386 C 109.54666173644091 7.6740435593585765 79.04730591314097 C 0.0 **** -0.24
17387 H 110.3340044139953 7.782842055968283 78.30259409972462 H 0.0 **** 0.06
17388 H 108.58426594729677 7.566173603255541 78.54617932585717 H 0.0 **** 0.06
17389 H 109.52674529543962 8.556930879769872 79.68677502460798 H 0.0 **** 0.06
17390 H 109.74052790928768 6.790339702652348 79.65455276812332 H 0.0 **** 0.06
17391 C 87.7880922307844 59.336179915174995 62.6678828739991 C 0.0 **** -0.24
17392 H 87.3761199521021 58.35200178850792 62.8943132852604 H 0.0 **** 0.06
17393 H 88.40127778687938 59.27469538336288 61.768278755283255 H 0.0 **** 0.06
17394 H 88.4009655482757 59.67385184175376 63.50381610963695 H 0.0 **** 0.06
17395 H 86.9739886472571 60.04201485549129 62.50571711146977 H 0.0 **** 0.06
17396 C 12.811995932641935 56.38988589714774 38.32559395318242 C 0.0 **** -0.24
17397 H 12.73299981233771 56.2762058710798 37.24434751358655 H 0.0 **** 0.06
17398 H 13.860613666071174 56.50177426560754 38.60276408041261 H 0.0 **** 0.06
17399 H 12.398009786361854 55.50840222342164 38.81425573958859 H 0.0 **** 0.06
17400 H 12.256467579576793 57.273857402770815 38.63888618047889 H 0.0 **** 0.06
17401 C 71.99518293313929 53.20886703061842 94.1800678335947 C 0.0 **** -0.24
17402 H 71.21110571108065 52.98563451709015 93.45557378682327 H 0.0 **** 0.06
17403 H 72.83301565550045 53.68459735653383 93.6716169485795 H 0.0 **** 0.06
17404 H 72.33193252894372 52.28213919468135 94.64717247764995 H 0.0 **** 0.06
17405 H 71.60349529152447 53.87950140885846 94.94374617806218 H 0.0 **** 0.06
17406 C 91.15802263043602 60.25476799783578 61.48626192194044 C 0.0 **** -0.24
17407 H 91.15477491622977 60.93093991535279 62.34100010562844 H 0.0 **** 0.06
17408 H 90.15850429592737 60.20876238158444 61.05600749936232 H 0.0 **** 0.06
17409 H 91.46103999813482 59.259657751915505 61.812440528098705 H 0.0 **** 0.06
17410 H 91.86043935401989 60.62049142777624 60.73740913349229 H 0.0 **** 0.06
17411 C 4.661999846787733 96.49026016759677 65.07616743138652 C 0.0 **** -0.24
17412 H 5.0995912234890355 97.2485037437657 65.72471179769235 H 0.0 **** 0.06
17413 H 4.984383628572001 96.66168799682049 64.04868670688131 H 0.0 **** 0.06
17414 H 3.575417478930321 96.54864904952066 65.131001981476 H 0.0 **** 0.06
17415 H 4.990331529851504 95.50236219922684 65.40027287502465 H 0.0 **** 0.06
17416 C 59.66585284681756 64.22785994397768 27.41176037825801 C 0.0 **** -0.24
17417 H 58.836502395386276 63.54992478369855 27.61319307342694 H 0.0 **** 0.06
17418 H 59.3371561174155 65.25687177893923 27.555128634603136 H 0.0 **** 0.06
17419 H 60.00232889222431 64.09406199598462 26.38276549275568 H 0.0 **** 0.06
17420 H 60.487631039070465 64.01012722310298 28.093556113527768 H 0.0 **** 0.06
17421 C 49.20628587680204 87.47536482795766 54.220023556433006 C 0.0 **** -0.24
17422 H 48.85375729565817 88.5072416022295 54.21258255116771 H 0.0 **** 0.06
17423 H 48.78711700589935 86.9427184630137 53.366110373198005 H 0.0 **** 0.06
17424 H 48.88906777082974 86.99031207320849 55.142911339965515 H 0.0 **** 0.06
17425 H 50.29461133638762 87.46331878322616 54.15881906156387 H 0.0 **** 0.06
17426 C 0.6217639222978306 51.83047840707354 103.84330378099887 C 0.0 **** -0.24
17427 H -0.04036089285818889 52.66232527595605 103.60491994198927 H 0.0 **** 0.06
17428 H 0.256597538833347 50.92580982103715 103.35706859422658 H 0.0 **** 0.06
17429 H 0.6419670660472008 51.68081718663376 104.92272340900487 H 0.0 **** 0.06
17430 H 1.627568269731313 52.05353033501717 103.48867187567348 H 0.0 **** 0.06
17431 C 74.40806340816829 28.84020456201572 38.579568834989345 C 0.0 **** -0.24
17432 H 74.48166389252381 28.017843775735223 39.291118615139226 H 0.0 **** 0.06
17433 H 75.39567478938793 29.056767558788458 38.170999770668345 H 0.0 **** 0.06
17434 H 74.02249139740522 29.725544277514246 39.08629585053785 H 0.0 **** 0.06
17435 H 73.73252059029338 28.561483972261357 37.77100831940123 H 0.0 **** 0.06
17436 C 62.19115473749716 39.24295026544081 61.70012463742711 C 0.0 **** -0.24
17437 H 61.78442935117329 40.24501939397231 61.83803888262565 H 0.0 **** 0.06
17438 H 62.62574547826958 39.16238201406213 60.70315467646179 H 0.0 **** 0.06
17439 H 61.392954883026334 38.5082568795886 61.80904684905465 H 0.0 **** 0.06
17440 H 62.961159463277625 39.05634289119354 62.44889751099157 H 0.0 **** 0.06
17441 C 13.64729151139975 88.91309682897028 49.76726725827618 C 0.0 **** -0.24
17442 H 13.871954116665425 89.51634251252497 50.6469562692807 H 0.0 **** 0.06
17443 H 14.548084665831443 88.39153808217651 49.444515761102195 H 0.0 **** 0.06
17444 H 13.293427249326005 89.5597997425692 48.96430722178506 H 0.0 **** 0.06
17445 H 12.874853544964463 88.1851318675667 50.01434005393587 H 0.0 **** 0.06
17446 C 61.2612851691867 51.591250340735236 6.010806704477332 C 0.0 **** -0.24
17447 H 60.37327022166149 51.81815690764137 5.421407675409142 H 0.0 **** 0.06
17448 H 61.742096788664206 52.521658071947805 6.31503376301373 H 0.0 **** 0.06
17449 H 61.955316088309836 51.00202922222951 5.4118042657010506 H 0.0 **** 0.06
17450 H 60.9742467808663 51.02353407915321 6.896327817452644 H 0.0 **** 0.06
17451 C 52.43654873757151 49.21549744192555 22.786435768494698 C 0.0 **** -0.24
17452 H 53.335692474830864 49.69598685991872 23.17211937904861 H 0.0 **** 0.06
17453 H 51.95659787982959 48.65004245307341 23.585234381003602 H 0.0 **** 0.06
17454 H 52.70532176484636 48.54119156203092 21.97291867226025 H 0.0 **** 0.06
17455 H 51.74952955922049 49.97579816697953 22.415681385872404 H 0.0 **** 0.06
17456 C 107.0960636808407 20.068090840695135 41.45993010157332 C 0.0 **** -0.24
17457 H 106.53924204663218 19.406320518926208 42.124067251110205 H 0.0 **** 0.06
17458 H 107.70271418495963 20.75136140302024 42.054459249860486 H 0.0 **** 0.06
17459 H 106.39834245162814 20.638408437743976 40.84700327488588 H 0.0 **** 0.06
17460 H 107.74455994152765 19.47425385408883 40.815439101809886 H 0.0 **** 0.06
17461 C 43.501657429426956 62.43815904824402 77.4359400362265 C 0.0 **** -0.24
17462 H 42.72157941296595 62.276751093010375 76.69254303630572 H 0.0 **** 0.06
17463 H 43.1718662048757 63.19218455870953 78.15123837719744 H 0.0 **** 0.06
17464 H 44.41055160296136 62.78023084659668 76.94015106750766 H 0.0 **** 0.06
17465 H 43.703084021553224 61.50436185790983 77.95981259901424 H 0.0 **** 0.06
17466 C 53.02668188476804 35.69690274436428 74.82945564949873 C 0.0 **** -0.24
17467 H 53.955636088607775 36.266502280149666 74.82364120625445 H 0.0 **** 0.06
17468 H 52.96915329881199 35.088586500779 73.92675791158456 H 0.0 **** 0.06
17469 H 52.18003062234277 36.38205035823762 74.8602407948215 H 0.0 **** 0.06
17470 H 53.003460607946295 35.04903073507097 75.70595325107448 H 0.0 **** 0.06
17471 C 81.52455180775482 90.3226299553476 63.048259251185165 C 0.0 **** -0.24
17472 H 81.10298648806801 89.32150529505293 63.13633571853283 H 0.0 **** 0.06
17473 H 82.02038888535262 90.424316202972 62.08246065005422 H 0.0 **** 0.06
17474 H 82.24892217124918 90.48315409772962 63.84725425094127 H 0.0 **** 0.06
17475 H 80.7268216970256 91.06081341495974 63.12618997719529 H 0.0 **** 0.06
17476 C 6.5679100183027685 100.31650015040219 78.33472007279084 C 0.0 **** -0.24
17477 H 5.922749951996934 99.84175395504789 79.07422392676071 H 0.0 **** 0.06
17478 H 6.9963110101553525 99.55438615602807 77.68334823627495 H 0.0 **** 0.06
17479 H 7.370197418479989 100.85232826362977 78.84365685295987 H 0.0 **** 0.06
17480 H 5.983929760920006 101.0179905189002 77.73949350023517 H 0.0 **** 0.06
17481 C 109.10339850819723 72.53995200696946 38.07007530894967 C 0.0 **** -0.24
17482 H 108.66349549609166 71.59031631320289 37.76545295321503 H 0.0 **** 0.06
17483 H 108.31244688059621 73.27609961469975 38.21295498729043 H 0.0 **** 0.06
17484 H 109.78869644281464 72.88754155145915 37.296856936612016 H 0.0 **** 0.06
17485 H 109.64782887635175 72.40421996012523 39.0047665930357 H 0.0 **** 0.06
17486 C 94.73227269738604 46.14553016571122 31.020009718979566 C 0.0 **** -0.24
17487 H 94.02969163430697 45.658407331938406 31.695413691642386 H 0.0 **** 0.06
17488 H 94.36082350320953 47.13794936724753 30.762277140532575 H 0.0 **** 0.06
17489 H 94.8381537698578 45.5494182918882 30.11378446818756 H 0.0 **** 0.06
17490 H 95.70241047010069 46.23718939341583 31.509718561343306 H 0.0 **** 0.06
17491 C 40.35000570792346 32.2513580308776 24.98903826351759 C 0.0 **** -0.24
17492 H 41.01566485964955 32.13441378823731 24.13384043275251 H 0.0 **** 0.06
17493 H 39.32664930236717 32.3795639134444 24.637951032718554 H 0.0 **** 0.06
17494 H 40.649581302745304 33.12718174254425 25.56540683521563 H 0.0 **** 0.06
17495 H 40.40968616182545 31.36431052419846 25.620207331978587 H 0.0 **** 0.06
17496 C 112.13217490789845 62.20238350543742 25.71255637602735 C 0.0 **** -0.24
17497 H 112.31003629436621 63.27325446757553 25.810418995053823 H 0.0 **** 0.06
17498 H 111.62783993138541 62.00264908488352 24.767108977535088 H 0.0 **** 0.06
17499 H 111.50809636714078 61.86097393468339 26.53804643271917 H 0.0 **** 0.06
17500 H 113.08517537243145 61.6726199971369 25.734719416449877 H 0.0 **** 0.06
17501 C 67.36652249072719 12.561974000105408 0.8063120257958758 C 0.0 **** -0.24
17502 H 68.34432124013608 12.082283500256352 0.7645626510734473 H 0.0 **** 0.06
17503 H 67.49351416110761 13.645414098389153 0.81969764637563 H 0.0 **** 0.06
17504 H 66.845398664443 12.246036976609957 1.7092766246548194 H 0.0 **** 0.06
17505 H 66.78434734460816 12.275198973580046 -0.0695924145638287 H 0.0 **** 0.06
17506 C 107.6120567429011 22.88859877687085 74.53653238251866 C 0.0 **** -0.24
17507 H 107.51168387719113 22.25969385255175 75.4218048500777 H 0.0 **** 0.06
17508 H 106.8394311462985 22.624513620269767 73.81448175813614 H 0.0 **** 0.06
17509 H 108.59485666712891 22.73463254878365 74.09195049901297 H 0.0 **** 0.06
17510 H 107.50173270020926 23.934279399763057 74.821070506382 H 0.0 **** 0.06
17511 C 13.387549034973631 49.81259705854657 93.21262169266879 C 0.0 **** -0.24
17512 H 12.445216234586923 50.1970095908255 93.60318193043815 H 0.0 **** 0.06
17513 H 13.94732142932105 49.336930996438895 94.01777387740924 H 0.0 **** 0.06
17514 H 13.971299640272662 50.63467734207299 92.79878523566953 H 0.0 **** 0.06
17515 H 13.183826782700379 49.082030073538164 92.4295121625861 H 0.0 **** 0.06
17516 C 7.053327761879183 56.36732523148672 18.245485750952028 C 0.0 **** -0.24
17517 H 7.138686009946223 55.398153372004714 18.7356981509476 H 0.0 **** 0.06
17518 H 6.207596213269731 56.35283596644004 17.55748019902687 H 0.0 **** 0.06
17519 H 7.968763133482577 56.57602397444242 17.691237302527327 H 0.0 **** 0.06
17520 H 6.89776057176746 57.142168932491984 18.99621172099556 H 0.0 **** 0.06
17521 C 25.5703154217058 35.94571710247206 111.48186041574837 C 0.0 **** -0.24
17522 H 24.650905314549505 36.09514426292364 110.9153394577077 H 0.0 **** 0.06
17523 H 26.147223959420074 35.1370311694717 111.03281140973048 H 0.0 **** 0.06
17524 H 25.3241509952083 35.68700914117059 112.51202093369545 H 0.0 **** 0.06
17525 H 26.157598193066235 36.86329732651174 111.46898379988329 H 0.0 **** 0.06
17526 C 45.45985704380209 108.73118648767868 36.14180171075631 C 0.0 **** -0.24
17527 H 44.73076996516656 109.37908792878625 36.629949465909334 H 0.0 **** 0.06
17528 H 46.41428945786231 109.25179986186583 36.06475068380386 H 0.0 **** 0.06
17529 H 45.10413649437501 108.47333730369328 35.14360025112909 H 0.0 **** 0.06
17530 H 45.58703747013101 107.82190320719613 36.72796666810392 H 0.0 **** 0.06
17531 C 88.84814454923676 54.68752287977381 95.1694359123145 C 0.0 **** -0.24
17532 H 89.2396059545228 55.688477928898045 94.99023686091383 H 0.0 **** 0.06
17533 H 87.75812912586954 54.71422039337794 95.14459468677839 H 0.0 **** 0.06
17534 H 89.18139664224393 54.33701553910337 96.14679976262758 H 0.0 **** 0.06
17535 H 89.2126006904387 54.01078179603758 94.39646073322962 H 0.0 **** 0.06
17536 C 82.4204305228437 38.4182211445862 26.178174660461053 C 0.0 **** -0.24
17537 H 82.33753526258144 38.282725785232145 25.099791252146105 H 0.0 **** 0.06
17538 H 82.78740125960786 37.49708293910106 26.632620877508373 H 0.0 **** 0.06
17539 H 81.4418824838678 38.661713968155595 26.58935983297988 H 0.0 **** 0.06
17540 H 83.11646745165757 39.22977158342536 26.389914732335853 H 0.0 **** 0.06
17541 C 101.8309818153169 68.84845749732145 25.030403221037602 C 0.0 **** -0.24
17542 H 100.89738286084847 69.12721676832538 24.541688934620197 H 0.0 **** 0.06
17543 H 102.07337505073204 67.8143269528893 24.787526970095314 H 0.0 **** 0.06
17544 H 101.72013737164337 68.9524906199897 26.109960090274967 H 0.0 **** 0.06
17545 H 102.63147588225496 69.50141306185063 24.683418153108335 H 0.0 **** 0.06
17546 C 105.27681984168362 77.34329074184299 26.695275335538355 C 0.0 **** -0.24
17547 H 104.33217869902526 77.7507939152375 26.335064747011046 H 0.0 **** 0.06
17548 H 105.55261505749488 76.47772848262969 26.092923807554854 H 0.0 **** 0.06
17549 H 105.16782427809028 77.0420058402633 27.736645446634242 H 0.0 **** 0.06
17550 H 106.05378984946202 78.10465952393167 26.616842851338518 H 0.0 **** 0.06
17551 C 50.52897665057354 53.8781045131679 43.84510413997681 C 0.0 **** -0.24
17552 H 51.36552559376081 54.11303474709132 43.18722723366349 H 0.0 **** 0.06
17553 H 50.83236871505247 54.01733778883846 44.88245302397104 H 0.0 **** 0.06
17554 H 50.22487703327674 52.842791043843135 43.69121187643888 H 0.0 **** 0.06
17555 H 49.69202267576819 54.53944984788319 43.61867348639113 H 0.0 **** 0.06
17556 C 102.73402637965091 64.64212235059995 55.38966881143824 C 0.0 **** -0.24
17557 H 102.86188206023459 64.85168849221205 54.327471385770934 H 0.0 **** 0.06
17558 H 101.73567748511792 64.94991953294442 55.70333721416881 H 0.0 **** 0.06
17559 H 103.48058866372352 65.19393988309864 55.961059719931484 H 0.0 **** 0.06
17560 H 102.85800098087671 63.57400552149608 55.56587630670293 H 0.0 **** 0.06
17561 C 92.30170044279402 10.222648651881613 99.57598986598686 C 0.0 **** -0.24
17562 H 92.57962690965155 10.987006772589197 100.3018100526129 H 0.0 **** 0.06
17563 H 93.10180621038853 9.485955297786163 99.50041817506136 H 0.0 **** 0.06
17564 H 92.1434692486163 10.687546882600216 98.60219009673503 H 0.0 **** 0.06
17565 H 91.38419599402192 9.731493646048946 99.89822063284521 H 0.0 **** 0.06
17566 C 25.274475138809834 36.07890731752235 80.34779222188831 C 0.0 **** -0.24
17567 H 25.143299294243775 36.989105822281545 79.7628794490812 H 0.0 **** 0.06
17568 H 24.339101685815848 35.52015002300283 80.3645892449469 H 0.0 **** 0.06
17569 H 25.559029886652155 36.34128740160594 81.36685978030766 H 0.0 **** 0.06
17570 H 26.05592131027663 35.46699568024155 79.89827318382584 H 0.0 **** 0.06
17571 C 99.9896233063385 102.26424490904941 51.960780363814564 C 0.0 **** -0.24
17572 H 99.88524600918288 101.25605869264899 51.55824416113913 H 0.0 **** 0.06
17573 H 100.80165714604883 102.28307009945041 52.687319431775705 H 0.0 **** 0.06
17574 H 99.05941753743554 102.55826132604938 52.446469499480116 H 0.0 **** 0.06
17575 H 100.2113559463505 102.95747674771684 51.14912115702967 H 0.0 **** 0.06
17576 C 7.664389781866564 56.33554583297945 62.9579642825721 C 0.0 **** -0.24
17577 H 7.971541546434617 57.350331194224424 63.20914112037517 H 0.0 **** 0.06
17578 H 8.462837518477752 55.84174399947028 62.40307563022255 H 0.0 **** 0.06
17579 H 6.7630069234917745 56.37000305432096 62.344867132631244 H 0.0 **** 0.06
17580 H 7.460196766950576 55.78040201158399 63.87306695111612 H 0.0 **** 0.06
17581 C 87.07954003313247 99.0758566575266 53.28022343655951 C 0.0 **** -0.24
17582 H 86.02344368629988 99.21139237842178 53.04734802979641 H 0.0 **** 0.06
17583 H 87.61042994115061 100.01442431426423 53.12164526174308 H 0.0 **** 0.06
17584 H 87.4986255755629 98.30737981725323 52.63050114464971 H 0.0 **** 0.06
17585 H 87.1859401017411 98.76890958953649 54.32031375401945 H 0.0 **** 0.06
17586 C 0.521932786588934 44.14418418168418 73.60897139211733 C 0.0 **** -0.24
17587 H 1.5140752749183832 43.925879066166495 74.00395689092159 H 0.0 **** 0.06
17588 H -0.23361633900421452 43.73292934679506 74.27725896771369 H 0.0 **** 0.06
17589 H 0.41828224755334986 43.694832246904106 72.62058286651234 H 0.0 **** 0.06
17590 H 0.392017380844095 45.22340626126021 73.53215312737348 H 0.0 **** 0.06
17591 C 24.33382577430649 72.07343560103834 22.23155550348156 C 0.0 **** -0.24
17592 H 23.354518328245376 71.59916768256832 22.28672973434891 H 0.0 **** 0.06
17593 H 24.3475685376236 72.7827100101726 21.402926853371724 H 0.0 **** 0.06
17594 H 25.09748151854683 71.31216546729564 22.071105832336457 H 0.0 **** 0.06
17595 H 24.53580380339264 72.59925508790931 23.164118674333253 H 0.0 **** 0.06
17596 C 83.21343762717876 53.71813208085234 4.377509783221825 C 0.0 **** -0.24
17597 H 83.39314846374918 53.67328579744958 5.451479146817832 H 0.0 **** 0.06
17598 H 83.69795174654533 52.86947550787215 3.893460668455276 H 0.0 **** 0.06
17599 H 83.62217003296487 54.645743471051674 3.9782188441329396 H 0.0 **** 0.06
17600 H 82.14066712811422 53.68090142444197 4.187347378279398 H 0.0 **** 0.06
17601 C 27.265049622757346 5.023359596840919 72.20431571776766 C 0.0 **** -0.24
17602 H 26.451166135172116 4.669043058601318 71.5720002662934 H 0.0 **** 0.06
17603 H 26.98353561442042 5.973110972260258 72.66009047473287 H 0.0 **** 0.06
17604 H 28.160803689602943 5.161487736392218 71.59950036536557 H 0.0 **** 0.06
17605 H 27.4638337193401 4.289365327226932 72.98539682679717 H 0.0 **** 0.06
17606 C 111.32470015925449 94.13582218466604 103.01610799585666 C 0.0 **** -0.24
17607 H 110.507344841906 94.30049588178503 103.71742831351912 H 0.0 **** 0.06
17608 H 111.26156984462219 94.8639011667949 102.20737939476993 H 0.0 **** 0.06
17609 H 111.252644548699 93.12900922506486 102.60530023531595 H 0.0 **** 0.06
17610 H 112.276563308081 94.24898656357044 103.53518291289794 H 0.0 **** 0.06
17611 C 60.23090138060064 67.8992097920032 89.78797779322065 C 0.0 **** -0.24
17612 H 60.15325585275505 66.89580868650918 89.3705922116626 H 0.0 **** 0.06
17613 H 60.45513026699044 67.83306650263631 90.85247384517652 H 0.0 **** 0.06
17614 H 59.2867367465598 68.4247424946856 89.64627779428213 H 0.0 **** 0.06
17615 H 61.0293170301446 68.44252107823795 89.2812206883167 H 0.0 **** 0.06
17616 C 26.23712995085262 52.71626994610435 88.15880596106996 C 0.0 **** -0.24
17617 H 26.9717569593233 53.09489385994095 88.86945318519466 H 0.0 **** 0.06
17618 H 25.2403791158207 53.03754574636241 88.46189019096116 H 0.0 **** 0.06
17619 H 26.278092187307436 51.62762134837163 88.13786154762971 H 0.0 **** 0.06
17620 H 26.458569521995315 53.10722710831965 87.165803245071 H 0.0 **** 0.06
17621 C 39.88002314469321 24.024359802071984 32.779613065725556 C 0.0 **** -0.24
17622 H 39.72631290908391 23.21991028264989 32.060930606865014 H 0.0 **** 0.06
17623 H 40.537829369638345 23.679409857163392 33.57685634723339 H 0.0 **** 0.06
17624 H 38.92060979946138 24.321393565496294 33.20211314314619 H 0.0 **** 0.06
17625 H 40.33509029497748 24.877428160735718 32.276218925513746 H 0.0 **** 0.06
17626 C 99.22671975112124 71.87851346370482 21.327102473032753 C 0.0 **** -0.24
17627 H 98.70414508290449 71.38419008691696 20.508074687689884 H 0.0 **** 0.06
17628 H 100.29492731316893 71.90716419449515 21.11031185013293 H 0.0 **** 0.06
17629 H 99.05686986112312 71.32715862294171 22.251639230639782 H 0.0 **** 0.06
17630 H 98.85127798112714 72.89595648523462 21.436457697646745 H 0.0 **** 0.06
17631 C 95.82195331166 54.655158814844185 27.39546050608037 C 0.0 **** -0.24
17632 H 95.26474700834595 55.333114566739766 28.04278544932083 H 0.0 **** 0.06
17633 H 95.76462480113679 53.64277037977274 27.796644439469347 H 0.0 **** 0.06
17634 H 96.86328300245654 54.97045142218752 27.349326875225948 H 0.0 **** 0.06
17635 H 95.39129854366263 54.67424506567994 26.394534159316102 H 0.0 **** 0.06
17636 C 6.063531640902738 35.33516951516515 94.28960166770119 C 0.0 **** -0.24
17637 H 4.984315920668209 35.254078450189695 94.40965966034861 H 0.0 **** 0.06
17638 H 6.295367789752802 35.60149288516419 93.25806868793885 H 0.0 **** 0.06
17639 H 6.5295314813328815 34.37964822061559 94.53190651425265 H 0.0 **** 0.06
17640 H 6.4465563443738745 36.105469924722115 94.9593141229092 H 0.0 **** 0.06
17641 C 51.14812453347282 2.34445487999092 17.220244649670292 C 0.0 **** -0.24
17642 H 51.38221998602952 2.5421423410904396 16.174357295712184 H 0.0 **** 0.06
17643 H 50.52387119890484 1.4535254450737085 17.29025122028102 H 0.0 **** 0.06
17644 H 50.61406605178988 3.1969742466362305 17.63993818078029 H 0.0 **** 0.06
17645 H 52.07256689454425 2.185896947634987 17.775775122995753 H 0.0 **** 0.06
17646 C 1.935146645320728 58.904036683134045 25.231323598863227 C 0.0 **** -0.24
17647 H 1.5978146367971533 58.50909673531087 24.273319991608517 H 0.0 **** 0.06
17648 H 3.023766570712695 58.94789205908288 25.2432273877003 H 0.0 **** 0.06
17649 H 1.5886993054070473 58.25348446373901 26.035035924459535 H 0.0 **** 0.06
17650 H 1.5284853055603378 59.90537306420182 25.37448232667603 H 0.0 **** 0.06
17651 C 3.395066569943026 66.3102025765694 70.9596681199767 C 0.0 **** -0.24
17652 H 3.8688083742953268 66.3026173175536 69.97918230768767 H 0.0 **** 0.06
17653 H 2.6562031061257585 67.11028664766766 71.00029604304018 H 0.0 **** 0.06
17654 H 4.151304750221186 66.47500989755483 71.72752929456635 H 0.0 **** 0.06
17655 H 2.903947150076249 65.35224270376378 71.13380326851814 H 0.0 **** 0.06
17656 C 80.53516315868251 111.16603327329985 95.25607855481795 C 0.0 **** -0.24
17657 H 81.1824508082106 111.86848020304888 94.7313449273096 H 0.0 **** 0.06
17658 H 80.52231967282171 110.21569797220903 94.72188731393743 H 0.0 **** 0.06
17659 H 79.5237209594984 111.57050221598502 95.30275810899587 H 0.0 **** 0.06
17660 H 80.9119151846287 111.01086203801653 96.26633550500233 H 0.0 **** 0.06
17661 C 29.106821267128907 112.18079246570159 98.92453079059828 C 0.0 **** -0.24
17662 H 28.49680803562549 112.95638484737822 98.45964714974963 H 0.0 **** 0.06
17663 H 28.772702729397395 112.02298669171108 99.95082247775841 H 0.0 **** 0.06
17664 H 30.151080897823988 112.49231242288295 98.92575426490205 H 0.0 **** 0.06
17665 H 29.00344454447773 111.25333396218178 98.36172501629241 H 0.0 **** 0.06
17666 C 64.52014653616953 29.969085014591087 39.374096882071086 C 0.0 **** -0.24
17667 H 63.92063203333032 30.07924177258414 40.277671025875236 H 0.0 **** 0.06
17668 H 64.35289343738009 28.980588059765836 38.94514977895679 H 0.0 **** 0.06
17669 H 65.5755597293128 30.083057125409937 39.623261062022664 H 0.0 **** 0.06
17670 H 64.2332689222057 30.73253375923919 38.65173023405873 H 0.0 **** 0.06
17671 C 43.48441747858436 97.13589916692433 84.29031973371542 C 0.0 **** -0.24
17672 H 42.99833349596989 96.42426524007962 84.95712469909733 H 0.0 **** 0.06
17673 H 42.771295499697686 97.90905733064449 84.00206297164513 H 0.0 **** 0.06
17674 H 43.83623864910902 96.61611144906831 83.39836117862521 H 0.0 **** 0.06
17675 H 44.33121174303122 97.59389940166562 84.80080049672605 H 0.0 **** 0.06
17676 C 31.429944708604125 42.83396756638092 33.61903769894576 C 0.0 **** -0.24
17677 H 31.660025656346022 42.45442949765328 34.61534994312579 H 0.0 **** 0.06
17678 H 30.814792402876094 43.730321477483216 33.705973142050084 H 0.0 **** 0.06
17679 H 30.88717960342626 42.0745388358325 33.05791175501996 H 0.0 **** 0.06
17680 H 32.35611015603456 43.0777342180952 33.099895430963784 H 0.0 **** 0.06
17681 C 61.935864650096185 69.60804015592362 97.00940446922462 C 0.0 **** -0.24
17682 H 61.63206610161881 68.67935914206126 97.49361874895695 H 0.0 **** 0.06
17683 H 61.63816254304465 69.58517237523378 95.96119127607122 H 0.0 **** 0.06
17684 H 63.01782836165068 69.71605115784405 97.07884138357048 H 0.0 **** 0.06
17685 H 61.4531928857677 70.44969911862722 97.50689777688774 H 0.0 **** 0.06
17686 C 70.43112888052914 48.866063475062276 93.5033983781706 C 0.0 **** -0.24
17687 H 69.58886927535386 48.610029997003494 92.86078963730051 H 0.0 **** 0.06
17688 H 70.60656707053388 48.05565837632082 94.21195359213817 H 0.0 **** 0.06
17689 H 70.20741339425476 49.78360899370995 94.0483048244175 H 0.0 **** 0.06
17690 H 71.32241611671529 49.0138300346423 92.89295547369096 H 0.0 **** 0.06
17691 C 70.50357148372063 80.27505112327512 45.673411231909256 C 0.0 **** -0.24
17692 H 69.7109906281683 80.33627220936654 44.926821635631825 H 0.0 **** 0.06
17693 H 71.35548110135198 79.73998441402381 45.25316125729887 H 0.0 **** 0.06
17694 H 70.13651286062947 79.74300086847612 46.549946896374934 H 0.0 **** 0.06
17695 H 70.81035488755606 81.28033934144048 45.95962417396919 H 0.0 **** 0.06
17696 C 55.300522015625674 86.12282440244272 5.894206936276248 C 0.0 **** -0.24
17697 H 55.096603986912825 87.09451169732552 5.444138451941171 H 0.0 **** 0.06
17698 H 56.09935229225901 86.22338097704852 6.628430955303543 H 0.0 **** 0.06
17699 H 55.6046724301466 85.42021404990206 5.118036441922811 H 0.0 **** 0.06
17700 H 54.3992040952009 85.75388738713772 6.384370084013142 H 0.0 **** 0.06
17701 C 39.381745036576966 91.70723903481473 80.52148796024474 C 0.0 **** -0.24
17702 H 40.21638012312683 91.97486395120771 81.16995893341908 H 0.0 **** 0.06
17703 H 39.35036343521307 92.38802821926515 79.67084016665126 H 0.0 **** 0.06
17704 H 38.44914275842498 91.78068038276481 81.08092763484575 H 0.0 **** 0.06
17705 H 39.511771023049675 90.68559803738026 80.16492900683232 H 0.0 **** 0.06
17706 C 79.64148663158667 25.417495993442458 85.98834885772013 C 0.0 **** -0.24
17707 H 79.58704783691303 25.998493718838347 86.90925410690934 H 0.0 **** 0.06
17708 H 80.64636298802537 25.011388032116656 85.87403699170034 H 0.0 **** 0.06
17709 H 79.41046564723862 26.060901331401112 85.13903130908619 H 0.0 **** 0.06
17710 H 78.92096949455296 24.600480821921792 86.03146124553834 H 0.0 **** 0.06
17711 C 54.33252978836185 57.34018204359387 82.61065641842953 C 0.0 **** -0.24
17712 H 54.43608796989295 56.445403156957184 83.22344901528999 H 0.0 **** 0.06
17713 H 54.45494340719986 58.224381986101264 83.23672813525894 H 0.0 **** 0.06
17714 H 53.3447219110117 57.35409245255232 82.15055266687392 H 0.0 **** 0.06
17715 H 55.0966440912114 57.337483307109835 81.83253592041314 H 0.0 **** 0.06
17716 C 27.699866252640774 36.22019057523832 93.44174226412002 C 0.0 **** -0.24
17717 H 28.603113935240017 36.57881051725619 93.93538763631057 H 0.0 **** 0.06
17718 H 27.272432013216026 35.39910031333858 94.01841306991821 H 0.0 **** 0.06
17719 H 27.948150198815682 35.86968725159497 92.43991199145421 H 0.0 **** 0.06
17720 H 26.97572892266644 37.03232704676134 93.3738018901974 H 0.0 **** 0.06
17721 C 67.86401788320367 98.35097236492615 69.3043865500465 C 0.0 **** -0.24
17722 H 67.94933596978092 97.28715012520692 69.52675218457944 H 0.0 **** 0.06
17723 H 68.63949117454783 98.89720966138546 69.84043628865669 H 0.0 **** 0.06
17724 H 66.88322149780959 98.70940422956033 69.6169844408679 H 0.0 **** 0.06
17725 H 67.9832926632333 98.507204405794 68.23240639749696 H 0.0 **** 0.06
17726 C 87.2405099441961 26.429724728405233 100.68073940823871 C 0.0 **** -0.24
17727 H 88.31463585178477 26.491230850788952 100.50407034615353 H 0.0 **** 0.06
17728 H 86.97302077727443 25.404497900671743 100.93493586569232 H 0.0 **** 0.06
17729 H 86.70774685278971 26.733030810625678 99.7792737574513 H 0.0 **** 0.06
17730 H 86.96998863513883 27.09123302956897 101.5034260736081 H 0.0 **** 0.06
17731 C 106.87602472426661 68.36802179331883 9.69127414931583 C 0.0 **** -0.24
17732 H 105.78904665996973 68.41276102691799 9.758045936386623 H 0.0 **** 0.06
17733 H 107.16274496550588 67.87813338017617 8.760812313740843 H 0.0 **** 0.06
17734 H 107.26887301742516 67.80158388645003 10.53624205727553 H 0.0 **** 0.06
17735 H 107.28338797753449 69.37925728113618 9.710931326557443 H 0.0 **** 0.06
17736 C 50.387849672383425 36.65514507686197 16.195641175692344 C 0.0 **** -0.24
17737 H 51.206156555218456 37.34209263762017 15.983787009553907 H 0.0 **** 0.06
17738 H 49.43717406485527 37.18059746580826 16.09739583361278 H 0.0 **** 0.06
17739 H 50.487862421553416 36.27315065591506 17.21218688016586 H 0.0 **** 0.06
17740 H 50.4194737865333 35.824650580305615 15.490762344688392 H 0.0 **** 0.06
17741 C 97.5933391532842 53.6142298066613 8.807072819064032 C 0.0 **** -0.24
17742 H 96.50915483140352 53.505786891978154 8.839751411556023 H 0.0 **** 0.06
17743 H 98.05737832447244 52.62798088443961 8.79696827579889 H 0.0 **** 0.06
17744 H 97.92983479487236 54.16630893638958 9.685810451360709 H 0.0 **** 0.06
17745 H 97.87688113593634 54.15962179763808 7.906275407324387 H 0.0 **** 0.06
17746 C 48.87107270919407 48.62093251531829 8.603682595610692 C 0.0 **** -0.24
17747 H 47.84287130027778 48.40809668786105 8.895403582791005 H 0.0 **** 0.06
17748 H 49.55273576645115 48.207742449793955 9.346583524317523 H 0.0 **** 0.06
17749 H 49.014631314826204 49.69981715488319 8.538664966168767 H 0.0 **** 0.06
17750 H 49.073608938008675 48.16954485497584 7.632453661088803 H 0.0 **** 0.06
17751 C 41.874209515241375 47.424281279386804 76.77410011091959 C 0.0 **** -0.24
17752 H 41.57497768316793 48.21975389519267 77.45615654897281 H 0.0 **** 0.06
17753 H 42.712077812725084 47.76490902524151 76.16511005281916 H 0.0 **** 0.06
17754 H 41.03467833961 47.16727007445749 76.12726002127098 H 0.0 **** 0.06
17755 H 42.17370785863275 46.54711430420633 77.34727739953638 H 0.0 **** 0.06
17756 C 25.664088139659896 64.46207687789251 13.069831299915826 C 0.0 **** -0.24
17757 H 25.8336421560877 64.08720088613399 14.079968371910521 H 0.0 **** 0.06
17758 H 25.51831910921053 63.622442418755725 12.39006754208744 H 0.0 **** 0.06
17759 H 26.528824958136646 65.04381462561702 12.749266383804219 H 0.0 **** 0.06
17760 H 24.776524519418846 65.09524325206945 13.062242642046936 H 0.0 **** 0.06
17761 C 31.11275561876927 73.05770478016856 97.85716160035736 C 0.0 **** -0.24
17762 H 31.89405814874567 72.96914684497537 97.10191576568116 H 0.0 **** 0.06
17763 H 31.310894013608355 72.3566128218751 98.66736625485726 H 0.0 **** 0.06
17764 H 30.146448673964457 72.83133026874302 97.407479703919 H 0.0 **** 0.06
17765 H 31.101099120146607 74.07483876875744 98.24952112385756 H 0.0 **** 0.06
17766 C 51.129086534118215 89.85267591325524 47.81053098353567 C 0.0 **** -0.24
17767 H 52.028872871402314 90.25532715736657 47.34536443944571 H 0.0 **** 0.06
17768 H 50.59772939432844 90.6546419285736 48.324762053444374 H 0.0 **** 0.06
17769 H 51.40584871840676 89.08090580202153 48.527940845775795 H 0.0 **** 0.06
17770 H 50.48524495048801 89.4227233040815 47.04316199346745 H 0.0 **** 0.06
17771 C 33.76015024784488 95.0965000629574 106.52597141993887 C 0.0 **** -0.24
17772 H 33.20449005425266 96.01227201806822 106.73052441948595 H 0.0 **** 0.06
17773 H 33.535685093042815 94.75360269860184 105.5153823606361 H 0.0 **** 0.06
17774 H 33.47203176674141 94.329401401459 107.2429544235305 H 0.0 **** 0.06
17775 H 34.82881747504311 95.29399680483036 106.613970417875 H 0.0 **** 0.06
17776 C 2.586944395917101 33.073840951914804 2.7630380912221426 C 0.0 **** -0.24
17777 H 2.7889641219968837 32.93923022404073 1.7007493680080046 H 0.0 **** 0.06
17778 H 3.1245366874842233 33.95081518353584 3.1263729618405875 H 0.0 **** 0.06
17779 H 2.9171849892398996 32.19205880498407 3.310948405000673 H 0.0 **** 0.06
17780 H 1.5166335485072722 33.21565086059263 2.9138129126323946 H 0.0 **** 0.06
17781 C 16.04904899965632 52.173361442722324 48.70011684991323 C 0.0 **** -0.24
17782 H 16.154709112057134 51.44820211790994 47.89370489586953 H 0.0 **** 0.06
17783 H 16.141353755626113 51.66579025903994 49.66012294146603 H 0.0 **** 0.06
17784 H 15.071351650055476 52.650621917163164 48.63305922210111 H 0.0 **** 0.06
17785 H 16.829198515984956 52.930305581649236 48.612294523960145 H 0.0 **** 0.06
17786 C 63.99215486615657 17.872307651184215 21.028317399624996 C 0.0 **** -0.24
17787 H 63.83428590950325 17.026718043432666 20.358442015615367 H 0.0 **** 0.06
17788 H 64.93756879284092 17.745307723256886 21.556582452580187 H 0.0 **** 0.06
17789 H 63.1764232537987 17.9217901653885 21.748712940473183 H 0.0 **** 0.06
17790 H 64.0202602635755 18.79472970705733 20.448297550273765 H 0.0 **** 0.06
17791 C 43.67583966949681 52.322128558805915 61.22347720484771 C 0.0 **** -0.24
17792 H 43.736345381393946 52.803713525821976 60.247616376662535 H 0.0 **** 0.06
17793 H 42.70034257212325 51.84833058111348 61.334370372306296 H 0.0 **** 0.06
17794 H 43.80846612713177 53.069354421151274 62.00620650120689 H 0.0 **** 0.06
17795 H 44.457995445351145 51.567331532557425 61.30476177072589 H 0.0 **** 0.06
17796 C 2.325751585129595 20.200161411007343 96.80975012495108 C 0.0 **** -0.24
17797 H 2.4909460351713335 19.689980823853034 95.86096778293634 H 0.0 **** 0.06
17798 H 2.5957096076932658 21.252367578918268 96.70860983890486 H 0.0 **** 0.06
17799 H 2.9418692727558806 19.73944581801294 97.582217958185 H 0.0 **** 0.06
17800 H 1.2748166986073386 20.120184869493244 97.08753601808792 H 0.0 **** 0.06
17801 C 56.02072884770371 38.64864958825294 64.26286186438534 C 0.0 **** -0.24
17802 H 56.311210698762835 38.95606627128697 63.25805955041909 H 0.0 **** 0.06
17803 H 55.698470463829835 39.52271614565038 64.8295183958113 H 0.0 **** 0.06
17804 H 56.871189208759546 38.184959589265134 64.76087496365778 H 0.0 **** 0.06
17805 H 55.200717010002165 37.93329622233202 64.20048771849338 H 0.0 **** 0.06
17806 C 69.31032079485277 48.6731299750779 85.43434539480785 C 0.0 **** -0.24
17807 H 69.69360116905085 49.34912116493484 86.19851320340166 H 0.0 **** 0.06
17808 H 68.38372534851493 48.218412938139025 85.78427919956215 H 0.0 **** 0.06
17809 H 70.04563134726936 47.89348569843898 85.23581183585623 H 0.0 **** 0.06
17810 H 69.1175061123497 49.23194858797874 84.51841981853585 H 0.0 **** 0.06
17811 C 57.333882737476756 40.28096507490747 6.65070116250503 C 0.0 **** -0.24
17812 H 57.235799033240994 39.90867249121311 5.630707908856252 H 0.0 **** 0.06
17813 H 56.420262045226025 40.06576340789431 7.204966324519949 H 0.0 **** 0.06
17814 H 57.502413248419884 41.358049320017415 6.6289655787381925 H 0.0 **** 0.06
17815 H 58.17766316620592 39.79139712366833 7.135402217183945 H 0.0 **** 0.06
17816 C 5.084447259120452 62.97784437385781 89.85085021056639 C 0.0 **** -0.24
17817 H 5.711715485441346 62.314844822732475 90.44692702668155 H 0.0 **** 0.06
17818 H 4.934290442199739 62.54395710284951 88.86150131257037 H 0.0 **** 0.06
17819 H 5.571362966697933 63.94764851484232 89.75286367664623 H 0.0 **** 0.06
17820 H 4.119163077829313 63.10317617409495 90.34327267587898 H 0.0 **** 0.06
17821 C 71.70530786362713 22.0131793183063 44.33223057308959 C 0.0 **** -0.24
17822 H 71.44183923088755 21.096132136841874 44.85874278386183 H 0.0 **** 0.06
17823 H 70.92822680423802 22.76060490561855 44.49459267248261 H 0.0 **** 0.06
17824 H 71.79418057665276 21.80696133693405 43.26556793668732 H 0.0 **** 0.06
17825 H 72.65592369707736 22.388958654757772 44.71095188089379 H 0.0 **** 0.06
17826 C 92.50776849643444 35.77910619606715 89.45774415785155 C 0.0 **** -0.24
17827 H 92.18078462504351 36.38618186449821 88.61262809490205 H 0.0 **** 0.06
17828 H 93.24176673589255 35.048245695889676 89.11684686943369 H 0.0 **** 0.06
17829 H 91.65024072658315 35.260840219594115 89.88643270445553 H 0.0 **** 0.06
17830 H 92.95941708043725 36.42255330046771 90.2126684983231 H 0.0 **** 0.06
17831 C 10.528803964270537 84.9028232888079 73.29896468502955 C 0.0 **** -0.24
17832 H 10.587664494814192 84.01861700800183 73.93349685133367 H 0.0 **** 0.06
17833 H 11.530827954398148 85.18045860487982 72.97053661832294 H 0.0 **** 0.06
17834 H 10.089582088222812 85.72555177750365 73.86253750911513 H 0.0 **** 0.06
17835 H 9.908079059709166 84.68571684630115 72.42975713392596 H 0.0 **** 0.06
17836 C 94.50007598255291 69.84683400765033 101.51901851900558 C 0.0 **** -0.24
17837 H 94.10019519093422 68.90868169663776 101.13476084497779 H 0.0 **** 0.06
17838 H 95.43127808746237 69.65327233747092 102.05267850696319 H 0.0 **** 0.06
17839 H 93.77848316016858 70.29906109415703 102.19846813449522 H 0.0 **** 0.06
17840 H 94.69286563341001 70.52616714649957 100.68825978900935 H 0.0 **** 0.06
17841 C 32.68552328074495 15.379772277624 103.22544461267563 C 0.0 **** -0.24
17842 H 32.19331403122151 16.037936652942022 102.50903262705788 H 0.0 **** 0.06
17843 H 33.358760336730526 14.70525921627194 102.69473802122047 H 0.0 **** 0.06
17844 H 31.933563913253536 14.797613034667734 103.7590569920759 H 0.0 **** 0.06
17845 H 33.25521287415947 15.977196713297417 103.93644400577108 H 0.0 **** 0.06
17846 C 111.97368008310417 37.692762948383944 81.63221755128052 C 0.0 **** -0.24
17847 H 112.87239058589563 37.36897175789392 81.10732796027457 H 0.0 **** 0.06
17848 H 111.19886253854892 36.932595616079055 81.53025767173187 H 0.0 **** 0.06
17849 H 111.62149352504576 38.63083695581791 81.20442775086946 H 0.0 **** 0.06
17850 H 112.20284265394534 37.83895722323645 82.68792876061798 H 0.0 **** 0.06
17851 C 38.82744202850769 11.055618356616094 93.27004775000827 C 0.0 **** -0.24
17852 H 38.851760939801686 11.49132978820785 94.26962646787143 H 0.0 **** 0.06
17853 H 38.25308596456305 10.128282630883007 93.2930495249673 H 0.0 **** 0.06
17854 H 39.844489652697284 10.845302142847288 92.94138755026452 H 0.0 **** 0.06
17855 H 38.35890018958042 11.757038817870097 92.58053037792831 H 0.0 **** 0.06
17856 C 31.50215074937725 83.6480601552849 3.731753175871333 C 0.0 **** -0.24
17857 H 32.54716944805486 83.70292361117262 4.036630701928544 H 0.0 **** 0.06
17858 H 30.924997605063595 83.13992329505743 4.5048227825705 H 0.0 **** 0.06
17859 H 31.425078476407265 83.09345788886856 2.7967314848033027 H 0.0 **** 0.06
17860 H 31.111357467983368 84.65593582604049 3.5888277341828854 H 0.0 **** 0.06
17861 C 37.30427845096206 79.87986102582181 25.097940876569396 C 0.0 **** -0.24
17862 H 36.48056470496402 79.32075979101663 24.652139393838837 H 0.0 **** 0.06
17863 H 37.048472309437656 80.9391114282391 25.12970898589066 H 0.0 **** 0.06
17864 H 38.20396317528997 79.74046870676091 24.497582120947357 H 0.0 **** 0.06
17865 H 37.48249309107112 79.51737454214853 26.110239483565664 H 0.0 **** 0.06
17866 C 110.21806482409411 45.39402050181374 48.74954261032834 C 0.0 **** -0.24
17867 H 110.96156369591658 45.83016933071073 49.417033465940435 H 0.0 **** 0.06
17868 H 109.33605846243701 46.03401680686383 48.721348464415925 H 0.0 **** 0.06
17869 H 109.93869485883556 44.40571912710723 49.113814719794455 H 0.0 **** 0.06
17870 H 110.63655168415039 45.30733026513283 47.747489785288636 H 0.0 **** 0.06
17871 C 109.36461053530621 55.05863344590233 68.76497495338847 C 0.0 **** -0.24
17872 H 109.94485213539173 54.273226778682016 68.28108197009252 H 0.0 **** 0.06
17873 H 109.8534823586885 56.02044715328907 68.60558486339411 H 0.0 **** 0.06
17874 H 109.30039987670045 54.85598162736932 69.83379560774233 H 0.0 **** 0.06
17875 H 108.36266105091266 55.08507498584186 68.33894754595778 H 0.0 **** 0.06
17876 C 2.186291196540239 90.2080359117204 32.142321254468754 C 0.0 **** -0.24
17877 H 2.052591034102562 89.60662816595436 31.24340170722175 H 0.0 **** 0.06
17878 H 2.498169785191166 91.21403193826643 31.86337130575984 H 0.0 **** 0.06
17879 H 2.950142042845954 89.75252214812213 32.7735712534338 H 0.0 **** 0.06
17880 H 1.2451063143755903 90.25674283217211 32.68954517374323 H 0.0 **** 0.06
17881 C 25.697729060333415 57.297475745018176 20.01729718003071 C 0.0 **** -0.24
17882 H 26.142765230659847 57.72453274299423 19.11849045562991 H 0.0 **** 0.06
17883 H 26.422151397682 57.334587981085576 20.83245636280202 H 0.0 **** 0.06
17884 H 25.41768360399965 56.262056093492134 19.827255094944974 H 0.0 **** 0.06
17885 H 24.812288757288457 57.870511654324844 20.29081254352957 H 0.0 **** 0.06
17886 C 109.46587535397519 72.24302372564367 98.74012287830453 C 0.0 **** -0.24
17887 H 110.20846898973102 71.4860591380451 98.99288899142823 H 0.0 **** 0.06
17888 H 108.75340190490509 72.3411273173759 99.55904085108335 H 0.0 **** 0.06
17889 H 108.93914968503688 71.94487178054212 97.8330799182367 H 0.0 **** 0.06
17890 H 109.96338662433581 73.19857466745447 98.57405263036685 H 0.0 **** 0.06
17891 C 101.40428883797674 77.2613640255293 93.87079041165521 C 0.0 **** -0.24
17892 H 100.79953457386347 77.94049524134465 93.2709926272816 H 0.0 **** 0.06
17893 H 100.85674590485235 76.3318109156732 94.03018052643566 H 0.0 **** 0.06
17894 H 101.62387569321285 77.7242394072868 94.83291378553221 H 0.0 **** 0.06
17895 H 102.33763815760364 77.04767259647014 93.34883114572747 H 0.0 **** 0.06
17896 C 14.175452894136868 85.10874759480541 48.67012438652907 C 0.0 **** -0.24
17897 H 15.036371319732396 85.7765037824444 48.69979794252711 H 0.0 **** 0.06
17898 H 13.431535250113356 85.44243956242948 49.394171795710406 H 0.0 **** 0.06
17899 H 14.492960617483305 84.09558725683229 48.91692262644102 H 0.0 **** 0.06
17900 H 13.740733435267117 85.12025692047442 47.670988821888926 H 0.0 **** 0.06
17901 C 15.994603697401118 103.28273689440783 91.73997306273625 C 0.0 **** -0.24
17902 H 16.076634797406655 104.16832989306786 92.37096623927636 H 0.0 **** 0.06
17903 H 16.1266898297865 102.38892343686715 92.35157773677761 H 0.0 **** 0.06
17904 H 16.765154603727467 103.31324160908872 90.96893401444675 H 0.0 **** 0.06
17905 H 15.011456161963523 103.25984744773751 91.27129907129361 H 0.0 **** 0.06
17906 C 109.04120886471668 83.5761769350305 27.103325606707415 C 0.0 **** -0.24
17907 H 108.66327005474966 84.43344914245753 26.543546919784717 H 0.0 **** 0.06
17908 H 110.10361397569682 83.44926376751866 26.897253359724743 H 0.0 **** 0.06
17909 H 108.50214630533196 82.67905210316428 26.80011455708376 H 0.0 **** 0.06
17910 H 108.89373786133416 83.74606974586533 28.169568116941548 H 0.0 **** 0.06
17911 C 61.75122738304702 104.20567887549831 105.15645173488483 C 0.0 **** -0.24
17912 H 62.60865100234929 103.5423957805273 105.04623097741211 H 0.0 **** 0.06
17913 H 62.00898856668803 105.02450624213765 105.82880830357786 H 0.0 **** 0.06
17914 H 60.910609109088966 103.6483519518523 105.56911500639788 H 0.0 **** 0.06
17915 H 61.476248266581024 104.60881365260968 104.18169318166832 H 0.0 **** 0.06
17916 C 29.890073203240718 7.817472207916024 11.89590044113952 C 0.0 **** -0.24
17917 H 29.647111016070966 8.86885062015684 11.746163577120132 H 0.0 **** 0.06
17918 H 29.046035993382276 7.313357710326711 12.368145328083834 H 0.0 **** 0.06
17919 H 30.76769182021934 7.735242218734298 12.537923215060939 H 0.0 **** 0.06
17920 H 30.098994533268524 7.351712104155846 10.932873552847429 H 0.0 **** 0.06
17921 C 77.33171541224237 1.2469162008525103 31.19591227033959 C 0.0 **** -0.24
17922 H 76.63220009470689 1.9161474873568665 30.69577913674567 H 0.0 **** 0.06
17923 H 78.24480080561963 1.7902103136175498 31.439304880930308 H 0.0 **** 0.06
17924 H 77.56981012556818 0.4116710808600743 30.537944309038437 H 0.0 **** 0.06
17925 H 76.87868708877892 0.8681766182166086 32.113072646804596 H 0.0 **** 0.06
17926 C 88.63844289610614 14.614701461897681 20.725925537044503 C 0.0 **** -0.24
17927 H 89.18604626591983 15.050658500972474 21.56063465868442 H 0.0 **** 0.06
17928 H 88.71164793563804 13.528014618628475 20.772251912437213 H 0.0 **** 0.06
17929 H 89.06507898831285 14.968030078629951 19.78743584829195 H 0.0 **** 0.06
17930 H 87.59139170019321 14.910806563543716 20.78378665096676 H 0.0 **** 0.06
17931 C 78.3051499854069 18.30275564538502 17.823078965314835 C 0.0 **** -0.24
17932 H 78.15740888902849 17.23678647426047 17.997368111809067 H 0.0 **** 0.06
17933 H 79.3680356908894 18.535997652176974 17.884897444483812 H 0.0 **** 0.06
17934 H 77.7634445575008 18.87236219611424 18.577356715447138 H 0.0 **** 0.06
17935 H 77.93192434684809 18.56388973123299 16.832602299250084 H 0.0 **** 0.06
17936 C 16.000742630727984 111.57841507589711 34.73231126346707 C 0.0 **** -0.24
17937 H 15.389085995289491 111.9715208812467 33.92120998293774 H 0.0 **** 0.06
17938 H 16.860345133546673 112.23077884458502 34.88896851075725 H 0.0 **** 0.06
17939 H 16.346044344713732 110.57678427331206 34.47439092033511 H 0.0 **** 0.06
17940 H 15.40768073019052 111.53362643794242 35.64611210996634 H 0.0 **** 0.06
17941 C 15.109939089125533 78.07254551566103 42.725022907140044 C 0.0 **** -0.24
17942 H 14.41863192204545 78.43780387114776 43.484879576627975 H 0.0 **** 0.06
17943 H 14.569514920323172 77.44960254223776 42.012001040142025 H 0.0 **** 0.06
17944 H 15.894885053673534 77.48499120863261 43.20092641006306 H 0.0 **** 0.06
17945 H 15.555905423156844 78.92002834682438 42.20282719108644 H 0.0 **** 0.06
17946 C 33.63577137935869 83.31552661486725 19.60784545475636 C 0.0 **** -0.24
17947 H 33.83106093371782 82.93237149416998 18.606843223065646 H 0.0 **** 0.06
17948 H 32.65278979688139 82.9799547559646 19.939743296903828 H 0.0 **** 0.06
17949 H 33.662354208208455 84.40563638247679 19.590801175168227 H 0.0 **** 0.06
17950 H 34.39725877993391 82.94389224415505 20.293103210514296 H 0.0 **** 0.06
17951 C 112.40132056583971 85.11201673133161 8.421370965598896 C 0.0 **** -0.24
17952 H 112.83714367676663 85.46185740022656 7.485401346855497 H 0.0 **** 0.06
17953 H 112.26855770120298 85.95678576253036 9.097736791965374 H 0.0 **** 0.06
17954 H 113.06731967561973 84.38026193211363 8.879778588935821 H 0.0 **** 0.06
17955 H 111.43495518898138 84.64891402367337 8.221270377792607 H 0.0 **** 0.06
17956 C 49.0949084360139 76.44324832270547 64.300255454455 C 0.0 **** -0.24
17957 H 50.16568513661514 76.24065381165474 64.31555566469592 H 0.0 **** 0.06
17958 H 48.5471119256338 75.50023440340146 64.3025341220796 H 0.0 **** 0.06
17959 H 48.84490313312552 77.00729851840725 63.40176332542193 H 0.0 **** 0.06
17960 H 48.82252629853351 77.02410107356309 65.1822415773172 H 0.0 **** 0.06
17961 C 86.21551394990357 73.82652443253247 57.90568684836692 C 0.0 **** -0.24
17962 H 86.72729015997314 72.97664549910704 57.45341443456029 H 0.0 **** 0.06
17963 H 86.5398561261039 74.74694059178566 57.41987963193742 H 0.0 **** 0.06
17964 H 86.45562406420291 73.87099915481738 58.9679469471804 H 0.0 **** 0.06
17965 H 85.13877311970356 73.70933747525126 57.78159086105841 H 0.0 **** 0.06
17966 C 29.785255590260135 70.37495105997112 22.37703225372009 C 0.0 **** -0.24
17967 H 28.861077338317614 70.20945588622146 22.931836150434805 H 0.0 **** 0.06
17968 H 30.135894354366826 71.39194124910597 22.552869689658706 H 0.0 **** 0.06
17969 H 29.598379166934706 70.23336352486183 21.312132440656313 H 0.0 **** 0.06
17970 H 30.540982583065386 69.66516058215205 22.71133077156712 H 0.0 **** 0.06
17971 C 41.710347706738006 4.917865023700415 27.25262428018189 C 0.0 **** -0.24
17972 H 42.230109145631104 4.0734962758825475 26.799014428302094 H 0.0 **** 0.06
17973 H 41.99702599915239 5.000743737753254 28.301110370053394 H 0.0 **** 0.06
17974 H 40.63405464902458 4.762422054240517 27.18013903317214 H 0.0 **** 0.06
17975 H 41.981218958420186 5.834297142512298 26.72830631578126 H 0.0 **** 0.06
17976 C 102.53295263742402 12.111457320120735 99.56389147719261 C 0.0 **** -0.24
17977 H 103.18655553523115 12.982440465349725 99.62306132481064 H 0.0 **** 0.06
17978 H 101.54592547734617 12.37264232253068 99.94571889482421 H 0.0 **** 0.06
17979 H 102.95195535919413 11.301793150588821 100.16201695328891 H 0.0 **** 0.06
17980 H 102.44857608279739 11.790493121800125 98.52519853787197 H 0.0 **** 0.06
17981 C 83.22900200400085 37.72039101693201 80.75717100474708 C 0.0 **** -0.24
17982 H 83.19188983855139 37.65401188429948 79.66987625103903 H 0.0 **** 0.06
17983 H 84.23386994951093 38.0028498938394 81.06932116251673 H 0.0 **** 0.06
17984 H 82.9718860144902 36.753282754036476 81.18943871641417 H 0.0 **** 0.06
17985 H 82.51648454015717 38.471973589078345 81.09963850583773 H 0.0 **** 0.06
17986 C 44.36586395655459 23.342344799068893 39.33255920420086 C 0.0 **** -0.24
17987 H 44.83776132740138 23.51419202884715 40.29999178225731 H 0.0 **** 0.06
17988 H 43.283946144877234 23.423331780122496 39.436382780553174 H 0.0 **** 0.06
17989 H 44.62361593243952 22.345714406029984 38.97356589557714 H 0.0 **** 0.06
17990 H 44.719055912807676 24.088229405619085 38.619409798823995 H 0.0 **** 0.06
17991 C 79.34464175124037 50.67194983511535 8.239281039538184 C 0.0 **** -0.24
17992 H 79.98393733136766 51.06602217642118 9.029033227215692 H 0.0 **** 0.06
17993 H 78.79698318702862 51.4906165389386 7.772427406682908 H 0.0 **** 0.06
17994 H 78.63910148274147 49.95864922105075 8.66522651516469 H 0.0 **** 0.06
17995 H 79.95892586846341 50.17084616984729 7.490150465298342 H 0.0 **** 0.06
17996 C 109.74256206805359 81.92644018749675 85.12829473486758 C 0.0 **** -0.24
17997 H 110.05484205144049 82.11722236279329 84.10170828166235 H 0.0 **** 0.06
17998 H 109.3806766652204 82.85219637726743 85.57668728083348 H 0.0 **** 0.06
17999 H 110.59101245516645 81.55267940878034 85.70183395223205 H 0.0 **** 0.06
18000 H 108.94501826121551 81.18396928031822 85.13341098928998 H 0.0 **** 0.06
18001 C 110.80729401262374 18.597151271208883 106.2966613110076 C 0.0 **** -0.24
18002 H 110.48119103572748 17.827020105097347 105.59787292732216 H 0.0 **** 0.06
18003 H 111.1451934330464 19.472387928119087 105.74148099349927 H 0.0 **** 0.06
18004 H 111.62797523242081 18.21308369437007 106.90337613676118 H 0.0 **** 0.06
18005 H 109.97616667660282 18.875092661272983 106.94428256373493 H 0.0 **** 0.06
18006 C 76.04939013323306 103.59477155539068 77.52239312267082 C 0.0 **** -0.24
18007 H 75.84217744093772 104.5907146148385 77.91245164241778 H 0.0 **** 0.06
18008 H 75.64221722029853 102.8465975244977 78.20252416141969 H 0.0 **** 0.06
18009 H 77.12718544747705 103.45698624024882 77.43344436207818 H 0.0 **** 0.06
18010 H 75.58746773819959 103.4846760632017 76.54203299087811 H 0.0 **** 0.06
18011 C 43.22396103310281 38.45815499006102 2.342201100737441 C 0.0 **** -0.24
18012 H 43.88572753168354 38.26045833759423 1.4982475526972507 H 0.0 **** 0.06
18013 H 43.59961532951308 39.31331055931746 2.905585772593156 H 0.0 **** 0.06
18014 H 43.19190459774143 37.58184183075811 2.990113176395994 H 0.0 **** 0.06
18015 H 42.221674423263615 38.676356083546324 1.9751763660349582 H 0.0 **** 0.06
18016 C 39.74770567257434 19.236588844984283 99.18999245281407 C 0.0 **** -0.24
18017 H 40.29255241760217 20.150143924688052 99.4262031243652 H 0.0 **** 0.06
18018 H 38.84190236453659 19.1874121899223 99.79499531246216 H 0.0 **** 0.06
18019 H 40.376291416424166 18.371720028243715 99.40575707274058 H 0.0 **** 0.06
18020 H 39.48056753056317 19.23622379498002 98.13317909368106 H 0.0 **** 0.06
18021 C 93.51780842429031 50.77366146433382 69.33262608451321 C 0.0 **** -0.24
18022 H 93.99043304413772 51.69604446096428 68.99433627619337 H 0.0 **** 0.06
18023 H 93.75128070868686 49.969461778882454 68.63461822753806 H 0.0 **** 0.06
18024 H 92.4384968830995 50.91357860240285 69.37816830648609 H 0.0 **** 0.06
18025 H 93.89329182391458 50.516336079268115 70.3228792014772 H 0.0 **** 0.06
18026 C 8.902395351252665 45.044489718952235 83.75377036014962 C 0.0 **** -0.24
18027 H 8.375939915004423 44.54030074231301 84.56524965064133 H 0.0 **** 0.06
18028 H 9.48871608855228 45.86925054449571 84.1596361001721 H 0.0 **** 0.06
18029 H 8.178742686254083 45.43032068138726 83.03663117823245 H 0.0 **** 0.06
18030 H 9.565141961548733 44.33661842584448 83.25652442266869 H 0.0 **** 0.06
18031 C 95.44143696336025 79.722964607394 69.03638082900713 C 0.0 **** -0.24
18032 H 95.1241852342745 80.2285897388542 68.12418897782021 H 0.0 **** 0.06
18033 H 94.7225189808708 79.92405526466939 69.83193597482176 H 0.0 **** 0.06
18034 H 96.42333871238418 80.09050729511495 69.33325399236247 H 0.0 **** 0.06
18035 H 95.49373768464324 78.64916145331739 68.8571050618902 H 0.0 **** 0.06
18036 C 4.806301336401063 23.152448046680348 56.29000222755414 C 0.0 **** -0.24
18037 H 4.621301890937275 24.107248253770692 56.78318902389077 H 0.0 **** 0.06
18038 H 5.791705515902322 23.168594305234365 55.82485250414669 H 0.0 **** 0.06
18039 H 4.0464943946007 22.98610272658385 55.52571426302953 H 0.0 **** 0.06
18040 H 4.762664108202898 22.348990729777256 57.02557924302761 H 0.0 **** 0.06
18041 C 44.33894751912126 90.30217695690328 35.10573298520555 C 0.0 **** -0.24
18042 H 44.660074787975134 91.11484302727774 34.45424505874681 H 0.0 **** 0.06
18043 H 44.41113534444085 90.62109336530327 36.14593713811554 H 0.0 **** 0.06
18044 H 44.97851827676334 89.43409336308753 34.947137616117544 H 0.0 **** 0.06
18045 H 43.306680589349014 90.0390343178646 34.87683283984572 H 0.0 **** 0.06
18046 C 21.806690169002195 87.69601999501279 32.18109876451831 C 0.0 **** -0.24
18047 H 20.78773641616675 87.30809403680641 32.18074217590066 H 0.0 **** 0.06
18048 H 22.510936677229267 86.86352293313885 32.16983172169955 H 0.0 **** 0.06
18049 H 21.967387707312696 88.2966529355156 33.07583543355679 H 0.0 **** 0.06
18050 H 21.959768430969632 88.31362879117384 31.295667314080674 H 0.0 **** 0.06
18051 C 49.96199528496675 102.414431755398 86.60236193097177 C 0.0 **** -0.24
18052 H 50.76661701005452 102.50042347940132 85.87192732992912 H 0.0 **** 0.06
18053 H 50.335324740325575 101.91252381457801 87.49502700163674 H 0.0 **** 0.06
18054 H 49.14455060367098 101.83516888110839 86.17435487507328 H 0.0 **** 0.06
18055 H 49.60355539299792 103.4088001931448 86.86612047701061 H 0.0 **** 0.06
18056 C 1.7933143501988411 78.0175011312102 28.249889501105486 C 0.0 **** -0.24
18057 H 1.4023683198928723 77.88359533167039 29.259144622260123 H 0.0 **** 0.06
18058 H 2.8532002579565585 77.76078299607894 28.235637180497292 H 0.0 **** 0.06
18059 H 1.6669555802620835 79.05607082639133 27.945582439378597 H 0.0 **** 0.06
18060 H 1.252567753147133 77.36850035776291 27.561936425179397 H 0.0 **** 0.06
18061 C 111.75442724627703 49.65711637825139 83.62507109036252 C 0.0 **** -0.24
18062 H 112.2344586406791 49.66033449409725 82.64679052828592 H 0.0 **** 0.06
18063 H 112.48360119363636 49.932401414374596 84.38771907609416 H 0.0 **** 0.06
18064 H 111.36691560018164 48.65962789304696 83.8357863432546 H 0.0 **** 0.06
18065 H 110.9338074266972 50.374450189753766 83.63033409142918 H 0.0 **** 0.06
18066 C 1.7955762629686092 90.87288815909301 25.152101067358615 C 0.0 **** -0.24
18067 H 1.2454355917061264 89.93817696155284 25.262955199212854 H 0.0 **** 0.06
18068 H 1.6695039825629578 91.24939193507171 24.135922343241987 H 0.0 **** 0.06
18069 H 2.8534931511278216 90.69644710810007 25.345465440179765 H 0.0 **** 0.06
18070 H 1.4134471949361682 91.60628351293602 25.86156140471087 H 0.0 **** 0.06
18071 C 57.131686515854824 2.590728126013076 45.79804791496747 C 0.0 **** -0.24
18072 H 56.89137769686198 2.8831174684993783 46.819613606345 H 0.0 **** 0.06
18073 H 56.959386598582086 3.4330768386156194 45.12906458227309 H 0.0 **** 0.06
18074 H 56.49823377212695 1.7548063215756997 45.5019504221024 H 0.0 **** 0.06
18075 H 58.17788236975065 2.290395881582853 45.74320133793202 H 0.0 **** 0.06
18076 C 26.625606075262766 91.7706536993976 58.25198893970696 C 0.0 **** -0.24
18077 H 26.712530930508024 92.51930928512255 59.03913901900194 H 0.0 **** 0.06
18078 H 25.84033381871548 91.06031100669284 58.511369269060026 H 0.0 **** 0.06
18079 H 27.573802001875492 91.24302039633176 58.146371698085375 H 0.0 **** 0.06
18080 H 26.375727690350544 92.26094135630748 57.31082358499077 H 0.0 **** 0.06
18081 C 50.13889799632926 9.014177219465125 46.08835931642075 C 0.0 **** -0.24
18082 H 49.34182460315384 9.22270536386705 46.801792138221884 H 0.0 **** 0.06
18083 H 51.09733749672023 9.298810445496883 46.5224284777255 H 0.0 **** 0.06
18084 H 49.967457558770434 9.585793019063942 45.1761795371404 H 0.0 **** 0.06
18085 H 50.14700296209685 7.949524631963925 45.85448846462049 H 0.0 **** 0.06
18086 C 107.18492564200284 95.27070572434866 28.631014611860735 C 0.0 **** -0.24
18087 H 107.96301920624359 96.0328279557362 28.674735354345614 H 0.0 **** 0.06
18088 H 106.5503404561436 95.3486897735063 29.513726632628433 H 0.0 **** 0.06
18089 H 107.64531670258958 94.28272188420141 28.599511481773476 H 0.0 **** 0.06
18090 H 106.58237930060596 95.4186964453892 27.735009575691038 H 0.0 **** 0.06
18091 C 59.81158504017676 87.99874400735769 89.65919611957008 C 0.0 **** -0.24
18092 H 59.78984014975874 89.0879218788302 89.69864389595006 H 0.0 **** 0.06
18093 H 60.55989412001123 87.62562071043837 90.35979659436254 H 0.0 **** 0.06
18094 H 60.06721412274512 87.67679580859576 88.64927901105779 H 0.0 **** 0.06
18095 H 58.83193269124141 87.60592404103986 89.93000804171993 H 0.0 **** 0.06
18096 C 104.12291494155974 10.423037328563069 33.49741882394059 C 0.0 **** -0.24
18097 H 104.50504763734162 10.450476254638005 34.51757129444407 H 0.0 **** 0.06
18098 H 103.81974334360288 11.426104263349117 33.195602396925025 H 0.0 **** 0.06
18099 H 103.26544679112823 9.753109928174581 33.448185229914 H 0.0 **** 0.06
18100 H 104.90473568645504 10.062462598443716 32.82730636943876 H 0.0 **** 0.06
18101 C 31.41166146634862 91.82154380866604 37.727159563785904 C 0.0 **** -0.24
18102 H 31.368059894252212 92.90932630182257 37.777612694022935 H 0.0 **** 0.06
18103 H 31.36352314849512 91.50319695926308 36.685870763037684 H 0.0 **** 0.06
18104 H 30.569468040256766 91.39867659057018 38.276385412019835 H 0.0 **** 0.06
18105 H 32.34529995680566 91.47367503245732 38.17056450442635 H 0.0 **** 0.06
18106 C 8.305516837444827 26.962244900928056 102.60931505686665 C 0.0 **** -0.24
18107 H 8.095052423303088 27.65386126815173 103.42503125510618 H 0.0 **** 0.06
18108 H 7.466570721651607 26.957478502823257 101.9125344909259 H 0.0 **** 0.06
18109 H 8.450630905703235 25.960070744870926 103.01113365758232 H 0.0 **** 0.06
18110 H 9.208624406468061 27.279452799654614 102.08836474280835 H 0.0 **** 0.06
18111 C 97.28029895578379 94.79100184685049 70.91690630999656 C 0.0 **** -0.24
18112 H 96.76443466531163 93.88785565824597 70.59071098411457 H 0.0 **** 0.06
18113 H 96.72414919390411 95.2510124422389 71.73391800038223 H 0.0 **** 0.06
18114 H 97.34816024684324 95.49124196542982 70.08428874090094 H 0.0 **** 0.06
18115 H 98.28305196006812 94.53332702676354 71.25786157462687 H 0.0 **** 0.06
18116 C 45.10058705333691 74.59853609406503 39.95477903536835 C 0.0 **** -0.24
18117 H 44.19728056066694 74.44385614296476 39.366474043905015 H 0.0 **** 0.06
18118 H 45.75147531846079 75.3062785504178 39.44034387554251 H 0.0 **** 0.06
18119 H 45.62195162306929 73.64845877614673 40.077141370249365 H 0.0 **** 0.06
18120 H 44.83385733128051 74.99492808314778 40.9343207738344 H 0.0 **** 0.06
18121 C 19.114299105980564 89.0425933192297 29.712880948140224 C 0.0 **** -0.24
18122 H 18.356934901768625 89.26885101077914 28.96215907924889 H 0.0 **** 0.06
18123 H 20.029882574090976 89.58658270757505 29.48163038091093 H 0.0 **** 0.06
18124 H 19.31624461560054 87.97140594251039 29.712772698100082 H 0.0 **** 0.06
18125 H 18.751472534249842 89.34332854612632 30.696330315093974 H 0.0 **** 0.06
18126 C 55.90869520824225 8.328303957226183 105.49402088743994 C 0.0 **** -0.24
18127 H 56.84743084657032 8.666739009313332 105.93255538439189 H 0.0 **** 0.06
18128 H 55.956299209438555 8.430017414551202 104.41023512891974 H 0.0 **** 0.06
18129 H 55.088373367732686 8.933904046070666 105.880696542458 H 0.0 **** 0.06
18130 H 55.7426537085351 7.283264582542145 105.75551144694248 H 0.0 **** 0.06
18131 C 76.70437390417277 45.098426561584 111.52373375128673 C 0.0 **** -0.24
18132 H 76.7742146971203 44.184856561266976 110.93317002363075 H 0.0 **** 0.06
18133 H 76.39336208664807 45.922739510451024 110.88191741930694 H 0.0 **** 0.06
18134 H 77.67757916983948 45.32375157079563 111.9599029192991 H 0.0 **** 0.06
18135 H 75.97182652622004 44.96019115549777 112.31974679969588 H 0.0 **** 0.06
18136 C 40.92287089723379 15.078209452431594 31.150005414744385 C 0.0 **** -0.24
18137 H 40.06672430564544 14.680189845062216 31.69357024585298 H 0.0 **** 0.06
18138 H 40.76197064305762 14.958416322965746 30.07840234891455 H 0.0 **** 0.06
18139 H 41.823645456978056 14.539383821738625 31.444957202677415 H 0.0 **** 0.06
18140 H 41.04096613528043 16.13697720722797 31.38416100431249 H 0.0 **** 0.06
18141 C 77.43725555799469 77.82282339784038 13.987285692883859 C 0.0 **** -0.24
18142 H 77.64098764555123 78.81427836118561 13.581649483338978 H 0.0 **** 0.06
18143 H 76.80878855634481 77.26758811780596 13.290845880897606 H 0.0 **** 0.06
18144 H 76.92247564178385 77.92088242746007 14.942901430506836 H 0.0 **** 0.06
18145 H 78.37713642530002 77.29074336919194 14.1335668456707 H 0.0 **** 0.06
18146 C 59.62024895881853 65.06691809190076 93.94968070262695 C 0.0 **** -0.24
18147 H 59.65591873988301 64.29337594726019 93.18218761474219 H 0.0 **** 0.06
18148 H 60.586529539984035 65.568548168282 94.00509289974798 H 0.0 **** 0.06
18149 H 59.39094761234336 64.61073077548323 94.91255888731362 H 0.0 **** 0.06
18150 H 58.8470638652168 65.79297809360622 93.69763686228256 H 0.0 **** 0.06
18151 C 100.43812893668826 60.138916540790945 95.28771738235102 C 0.0 **** -0.24
18152 H 99.90622838276397 60.886059793189986 94.69869093955293 H 0.0 **** 0.06
18153 H 100.19937200920913 59.143081653647755 94.91231162455173 H 0.0 **** 0.06
18154 H 100.13520801405554 60.21697012800303 96.33125361516136 H 0.0 **** 0.06
18155 H 101.51235751938452 60.310211957760174 95.2071486647439 H 0.0 **** 0.06
18156 C 72.34505896753103 57.74359022878386 83.61948447873405 C 0.0 **** -0.24
18157 H 71.49243643038974 57.09883355780315 83.40605523699654 H 0.0 **** 0.06
18158 H 72.50894989846194 57.783341934481086 84.69625415761618 H 0.0 **** 0.06
18159 H 72.14394547824577 58.74764833672779 83.24479911857298 H 0.0 **** 0.06
18160 H 73.23409877890782 57.344002320613384 83.13057327666223 H 0.0 **** 0.06
18161 C 38.65552802897285 46.235426285265135 39.59279297113292 C 0.0 **** -0.24
18162 H 37.622983152153466 46.58144308646186 39.53186740481476 H 0.0 **** 0.06
18163 H 38.670016488907095 45.190892329015355 39.9068015511109 H 0.0 **** 0.06
18164 H 39.19884553560758 46.840566867074784 40.317555188444715 H 0.0 **** 0.06
18165 H 39.12749147651607 46.32836987011737 38.61461640709274 H 0.0 **** 0.06
18166 C 38.1580116213338 63.147468594447105 31.414480944088552 C 0.0 **** -0.24
18167 H 39.21262683566903 63.378247709594575 31.566363017574105 H 0.0 **** 0.06
18168 H 38.01289968375832 62.7598332317977 30.4058889711975 H 0.0 **** 0.06
18169 H 37.56621063915716 64.05285096349866 31.545369044617786 H 0.0 **** 0.06
18170 H 37.84231330165923 62.398590637372536 32.14123041744949 H 0.0 **** 0.06
18171 C 74.18892070362227 13.302181166070056 88.51131421229871 C 0.0 **** -0.24
18172 H 75.19709370726144 13.679702697126842 88.34220464502675 H 0.0 **** 0.06
18173 H 74.0907789189117 12.314220294917888 88.06120988257032 H 0.0 **** 0.06
18174 H 73.46594599990331 13.981745207632656 88.05799226427933 H 0.0 **** 0.06
18175 H 74.00100247437075 13.235515228525685 89.58236263021215 H 0.0 **** 0.06
18176 C 12.697500988493598 15.416377414982286 45.55619892355915 C 0.0 **** -0.24
18177 H 11.68939623016091 15.082173814291103 45.79930811839412 H 0.0 **** 0.06
18178 H 13.356998903277947 14.552283877221189 45.47039509736115 H 0.0 **** 0.06
18179 H 13.062190148791245 16.074691404351615 46.34507212702894 H 0.0 **** 0.06
18180 H 12.68193208210695 15.957617044054597 44.60962313453106 H 0.0 **** 0.06
18181 C 98.94114778869232 55.698080110494814 99.95934243778419 C 0.0 **** -0.24
18182 H 99.34325524370104 55.175014085846705 99.09198732636236 H 0.0 **** 0.06
18183 H 97.8565064078162 55.76085133689775 99.8762630082775 H 0.0 **** 0.06
18184 H 99.36178076332124 56.70339193099421 100.00349575122146 H 0.0 **** 0.06
18185 H 99.20599327669089 55.1532042539716 100.86618069850567 H 0.0 **** 0.06
18186 C 38.95597593005442 94.21856757911377 88.61806961908962 C 0.0 **** -0.24
18187 H 38.751959029888184 93.46784201691526 89.38108310825103 H 0.0 **** 0.06
18188 H 39.57045110306862 93.77932641695475 87.83166584200302 H 0.0 **** 0.06
18189 H 39.48590938294828 95.05835530732372 89.06808797913041 H 0.0 **** 0.06
18190 H 38.01552919642606 94.56842071627932 88.1928166482443 H 0.0 **** 0.06
18191 C 95.86726164155408 64.3794066123383 91.98140991492829 C 0.0 **** -0.24
18192 H 96.70543108690453 64.00753502596092 92.57040556247944 H 0.0 **** 0.06
18193 H 95.29309517172499 63.53831888096474 91.59400750111706 H 0.0 **** 0.06
18194 H 96.24352181869835 64.9767581278195 91.15089751976319 H 0.0 **** 0.06
18195 H 95.22687629499933 64.9974426022516 92.61177456146581 H 0.0 **** 0.06
18196 C 80.44516615610056 35.00916759494979 68.46876201383367 C 0.0 **** -0.24
18197 H 79.85628339291824 34.123177720682634 68.22923647844982 H 0.0 **** 0.06
18198 H 80.22350801129355 35.79697483135703 67.74872116629899 H 0.0 **** 0.06
18199 H 81.50596995187504 34.76269019323104 68.42402294303511 H 0.0 **** 0.06
18200 H 80.19356664892169 35.352054222007865 69.47280528393941 H 0.0 **** 0.06
18201 C 84.23315191560383 36.39073015227788 15.446232560258093 C 0.0 **** -0.24
18202 H 83.90146699220645 35.47321004785894 15.933391077047066 H 0.0 **** 0.06
18203 H 84.8546963201988 36.140144683269625 14.586931779482242 H 0.0 **** 0.06
18204 H 84.81068735327932 36.987629898975754 16.15171315416756 H 0.0 **** 0.06
18205 H 83.36474028685058 36.959458424572745 15.114246463879049 H 0.0 **** 0.06
18206 C 1.0965228055184753 26.172269651799816 46.49995442329876 C 0.0 **** -0.24
18207 H 0.3426543551592829 26.103286500638752 47.28501757218109 H 0.0 **** 0.06
18208 H 0.6067853841027642 26.332099378263166 45.53860943335795 H 0.0 **** 0.06
18209 H 1.67010823938935 25.245862461654465 46.46617761093478 H 0.0 **** 0.06
18210 H 1.765430345467479 27.00629898528276 46.711203420854446 H 0.0 **** 0.06
18211 C 35.92603085792849 71.80727968367276 70.79831134303365 C 0.0 **** -0.24
18212 H 35.7426021832442 72.3192799473033 69.85390622989155 H 0.0 **** 0.06
18213 H 36.67994716905338 71.03331879473689 70.65303522298191 H 0.0 **** 0.06
18214 H 34.9994058135515 71.35213182532331 71.14984500534555 H 0.0 **** 0.06
18215 H 36.2804741304137 72.52590589190123 71.53814024403752 H 0.0 **** 0.06
18216 C 28.160277650363128 90.48775319252209 108.05093628579334 C 0.0 **** -0.24
18217 H 28.953110173810387 91.16907745851921 107.7411585256686 H 0.0 **** 0.06
18218 H 28.580278456478794 89.70644518253823 108.68424071148435 H 0.0 **** 0.06
18219 H 27.706394152439373 90.036058388828 107.16925951732816 H 0.0 **** 0.06
18220 H 27.402920501526438 91.04084890966291 108.60697558251269 H 0.0 **** 0.06
18221 C 64.27683585717193 64.44496876092217 23.381092847578884 C 0.0 **** -0.24
18222 H 63.403355323129006 64.05521154513843 23.904626521853118 H 0.0 **** 0.06
18223 H 63.96554432438381 65.22929321076276 22.691117391165733 H 0.0 **** 0.06
18224 H 64.75529442809068 63.63909213586862 22.824027605756243 H 0.0 **** 0.06
18225 H 64.98098381181558 64.85517652698496 24.104911630837705 H 0.0 **** 0.06
18226 C 5.699533848048532 106.35022603925012 7.9582397074819085 C 0.0 **** -0.24
18227 H 6.6752895204839575 105.86438172427006 7.977149536707117 H 0.0 **** 0.06
18228 H 5.160966891714409 106.12000723626636 8.876851300009562 H 0.0 **** 0.06
18229 H 5.131010857677467 105.98694197583427 7.102476506825113 H 0.0 **** 0.06
18230 H 5.832466602525784 107.42892635321135 7.87474172665776 H 0.0 **** 0.06
18231 C 74.82652337798359 14.039042670155503 34.127861556694995 C 0.0 **** -0.24
18232 H 74.72032332434861 14.849738497622688 34.848752129921024 H 0.0 **** 0.06
18233 H 75.52317280445612 14.337952261303684 33.34445550676895 H 0.0 **** 0.06
18234 H 73.8546832476595 13.817134191335608 33.68499038239605 H 0.0 **** 0.06
18235 H 75.20572877272821 13.15087290858185 34.633217993939525 H 0.0 **** 0.06
18236 C 50.938498095121645 23.444650563693024 40.36954889501325 C 0.0 **** -0.24
18237 H 51.496406797962095 24.38126372563972 40.4007759999367 H 0.0 **** 0.06
18238 H 50.301009595661185 23.37212371665757 41.25078703909564 H 0.0 **** 0.06
18239 H 51.63485616934321 22.60689459073754 40.353810748332705 H 0.0 **** 0.06
18240 H 50.32089964748292 23.420912824654522 39.47155441676226 H 0.0 **** 0.06
18241 C 93.12189984518267 99.60927676524491 108.18197416180948 C 0.0 **** -0.24
18242 H 92.91840260594321 100.09238456552592 107.22666841099283 H 0.0 **** 0.06
18243 H 93.5532439248272 100.3347186113842 108.8712547755369 H 0.0 **** 0.06
18244 H 93.82419940118768 98.78900812806128 108.03170734250006 H 0.0 **** 0.06
18245 H 92.19209720543188 99.22044280544927 108.59750708345143 H 0.0 **** 0.06
18246 C 98.21814865337561 64.8613869096896 105.08649992231761 C 0.0 **** -0.24
18247 H 97.60842021156245 63.957777804837576 105.08539873672669 H 0.0 **** 0.06
18248 H 98.07462554905294 65.39540500995093 106.02636546302935 H 0.0 **** 0.06
18249 H 97.92004403871925 65.50105533006905 104.25564713456993 H 0.0 **** 0.06
18250 H 99.26778110121325 64.591213309554 104.97844788291329 H 0.0 **** 0.06
18251 C 47.788606494147835 74.92704020014378 84.41154169902995 C 0.0 **** -0.24
18252 H 47.64619421594558 75.82859925817033 85.00717110067507 H 0.0 **** 0.06
18253 H 48.467905894943804 75.14171182366317 83.58580513094677 H 0.0 **** 0.06
18254 H 46.82733654948983 74.59736792248358 84.01664841671783 H 0.0 **** 0.06
18255 H 48.21298135033022 74.14120874955879 85.03775523841568 H 0.0 **** 0.06
18256 C 64.77188556240117 42.887851124997454 98.55761319312734 C 0.0 **** -0.24
18257 H 64.33448755200439 43.20488875217682 99.50430137309377 H 0.0 **** 0.06
18258 H 65.65454689833211 43.49185530454946 98.34636610673601 H 0.0 **** 0.06
18259 H 64.0416577909655 43.01790144754303 97.7585945875777 H 0.0 **** 0.06
18260 H 65.05568138964097 41.83822874523659 98.6235305079349 H 0.0 **** 0.06
18261 C 104.05996252662041 40.65335523449002 99.72327429075037 C 0.0 **** -0.24
18262 H 103.92609917212329 39.579945772619915 99.5921671795702 H 0.0 **** 0.06
18263 H 105.01637371241637 40.844517150891065 100.20928984563506 H 0.0 **** 0.06
18264 H 103.25255881007794 41.04808732222714 100.34053375187338 H 0.0 **** 0.06
18265 H 104.04386618447137 41.14260748225326 98.74908715904854 H 0.0 **** 0.06
18266 C 100.99846824496007 100.42923987928702 103.02450799891483 C 0.0 **** -0.24
18267 H 101.62884178244428 100.56597301678212 102.14567885775747 H 0.0 **** 0.06
18268 H 100.60511533347358 99.41263960858447 103.03321295798682 H 0.0 **** 0.06
18269 H 100.1719858955829 101.13890280472106 102.992777487062 H 0.0 **** 0.06
18270 H 101.58906468813319 100.5983081768295 103.92517007144119 H 0.0 **** 0.06
18271 C 44.83435946232305 85.89149700210234 43.98908851104941 C 0.0 **** -0.24
18272 H 45.243295051938354 85.10128521153001 44.61960136744164 H 0.0 **** 0.06
18273 H 44.584641198593765 86.75498809361926 44.606087980422174 H 0.0 **** 0.06
18274 H 43.9353795420281 85.52812695799429 43.49036940151206 H 0.0 **** 0.06
18275 H 45.57402347688667 86.17890610536523 43.24270357779232 H 0.0 **** 0.06
18276 C 13.590960166815591 105.544344139673 55.20300974197204 C 0.0 **** -0.24
18277 H 12.88843669989572 105.15110482391407 55.93711256233388 H 0.0 **** 0.06
18278 H 13.223693225237326 106.49683575596895 54.82157681649471 H 0.0 **** 0.06
18279 H 13.690283048373715 104.83652482489589 54.37977332376539 H 0.0 **** 0.06
18280 H 14.563452461488765 105.6915434833648 55.67340267600406 H 0.0 **** 0.06
18281 C 83.1504842781415 63.851627681948685 12.780101437260843 C 0.0 **** -0.24
18282 H 82.692521418551 63.544474264635596 13.7201653551075 H 0.0 **** 0.06
18283 H 83.45236271280825 64.89679273643264 12.847834800313404 H 0.0 **** 0.06
18284 H 82.43124089428895 63.732836096585004 11.969340103189747 H 0.0 **** 0.06
18285 H 84.02515531368249 63.231655672398745 12.583008348546898 H 0.0 **** 0.06
18286 C 84.11247653286847 59.047902842939806 64.80235101772163 C 0.0 **** -0.24
18287 H 83.12230053183626 59.2228935027874 65.22383314133785 H 0.0 **** 0.06
18288 H 84.76142197417138 59.89074232654349 65.04105340695688 H 0.0 **** 0.06
18289 H 84.03401368126586 58.944317220919544 63.72068474725578 H 0.0 **** 0.06
18290 H 84.53134059963233 58.13469929260705 65.22588920600657 H 0.0 **** 0.06
18291 C 26.61364781257278 42.47734299928641 107.9175699797266 C 0.0 **** -0.24
18292 H 27.453000144855658 41.78882998391117 108.01143604546058 H 0.0 **** 0.06
18293 H 26.977955089532472 43.50344216007926 107.98074587922275 H 0.0 **** 0.06
18294 H 25.901310046728874 42.29396790393554 108.72152136570178 H 0.0 **** 0.06
18295 H 26.12419024800613 42.32396933881762 106.95566914479366 H 0.0 **** 0.06
18296 C 6.456886962878713 49.30757761514468 102.29305827379326 C 0.0 **** -0.24
18297 H 5.9821239468064675 48.98334212273633 101.36636097615087 H 0.0 **** 0.06
18298 H 7.4337705630489666 48.83188023880692 102.38515541015337 H 0.0 **** 0.06
18299 H 5.831654767150297 49.023704906195945 103.14008803997083 H 0.0 **** 0.06
18300 H 6.57930605909678 50.39061362258374 102.278917408859 H 0.0 **** 0.06
18301 C 47.98796617613243 48.77143528366405 4.001777692758308 C 0.0 **** -0.24
18302 H 48.68935629682443 49.07680619091264 3.2252264036499216 H 0.0 **** 0.06
18303 H 48.54066473941589 48.40291111203544 4.8659823124164046 H 0.0 **** 0.06
18304 H 47.34244008814545 47.98113939370688 3.618634294111674 H 0.0 **** 0.06
18305 H 47.37925872915855 49.62615116916505 4.297879744350327 H 0.0 **** 0.06
18306 C 52.77912707608078 66.00230006001095 11.50539120952044 C 0.0 **** -0.24
18307 H 53.72654541576037 66.30144064099454 11.05690174548738 H 0.0 **** 0.06
18308 H 52.0860849496795 66.84294789561733 11.484056254788186 H 0.0 **** 0.06
18309 H 52.94713396749751 65.69428304830697 12.53735273564493 H 0.0 **** 0.06
18310 H 52.358183319167495 65.16967604890718 10.941464778002882 H 0.0 **** 0.06
18311 C 99.48595684148393 70.39920767907549 105.44718245809835 C 0.0 **** -0.24
18312 H 98.52599460183151 70.82888653734986 105.16092563907725 H 0.0 **** 0.06
18313 H 100.25586802397325 70.73401239232999 104.75139224933082 H 0.0 **** 0.06
18314 H 99.41965492409435 69.31098142602363 105.4189664549958 H 0.0 **** 0.06
18315 H 99.74242158436337 70.72162965040141 106.45594767080591 H 0.0 **** 0.06
18316 C 95.55787764890528 11.43992637187327 18.80687976134388 C 0.0 **** -0.24
18317 H 95.01808135146032 10.495820008723488 18.728933875237317 H 0.0 **** 0.06
18318 H 96.1956318122059 11.567726476299615 17.93212256112733 H 0.0 **** 0.06
18319 H 96.17218921557392 11.433242243917007 19.7073102231968 H 0.0 **** 0.06
18320 H 94.84394863555843 12.262036772407043 18.860724567806784 H 0.0 **** 0.06
18321 C 3.6817778373059724 93.59292837291287 28.78542460378341 C 0.0 **** -0.24
18322 H 4.048911850069786 92.5948806340337 29.025773825955042 H 0.0 **** 0.06
18323 H 3.9809069994202133 93.85537865586369 27.770730080705675 H 0.0 **** 0.06
18324 H 4.103935156046447 94.31276214620354 29.48687377807775 H 0.0 **** 0.06
18325 H 2.5944452126841497 93.60828905516615 28.860232382914518 H 0.0 **** 0.06
18326 C 95.56434238176166 45.173295380714876 25.570510814201185 C 0.0 **** -0.24
18327 H 94.52002753847228 44.96907825726146 25.803335155029288 H 0.0 **** 0.06
18328 H 95.89836485807109 46.04544800907607 26.13472026723079 H 0.0 **** 0.06
18329 H 95.66770035897878 45.36936667894193 24.503156337202853 H 0.0 **** 0.06
18330 H 96.17246460868958 44.310747634118684 25.84204000075613 H 0.0 **** 0.06
18331 C 53.9125173134789 44.416588020346566 8.299659390167136 C 0.0 **** -0.24
18332 H 54.64950868813585 44.08592966368348 7.5684479972237 H 0.0 **** 0.06
18333 H 53.36801830874032 43.55278232756091 8.682311978165131 H 0.0 **** 0.06
18334 H 53.213108183518244 45.106425589771 7.826014523856969 H 0.0 **** 0.06
18335 H 54.418686137202286 44.921215075564895 9.12306335487827 H 0.0 **** 0.06
18336 C 91.80594726333663 55.82530149077678 103.71995383173555 C 0.0 **** -0.24
18337 H 90.99281553491997 56.485433971038816 103.41679820586998 H 0.0 **** 0.06
18338 H 92.6728598435875 56.42298879515289 104.0009748870882 H 0.0 **** 0.06
18339 H 92.06924545694505 55.17075945736835 102.88882556159095 H 0.0 **** 0.06
18340 H 91.48620608345905 55.22356249125295 104.5704696289385 H 0.0 **** 0.06
18341 C 30.710842870037936 30.32229249866657 38.63061334863045 C 0.0 **** -0.24
18342 H 31.504916310083523 30.71157036918879 39.26853384037318 H 0.0 **** 0.06
18343 H 30.17705919506526 29.531809297047175 39.15778662487253 H 0.0 **** 0.06
18344 H 31.144360343359075 29.920897139119205 37.7147925488772 H 0.0 **** 0.06
18345 H 30.01859486820284 31.126296941861398 38.38211403649106 H 0.0 **** 0.06
18346 C 1.9183064169521344 72.39424081544223 18.721583306336754 C 0.0 **** -0.24
18347 H 0.8930832287562112 72.49573034162401 18.364211320027977 H 0.0 **** 0.06
18348 H 2.606060849285825 72.75980669895407 17.958313446447306 H 0.0 **** 0.06
18349 H 2.1277607622498067 71.34478805363986 18.927423386859942 H 0.0 **** 0.06
18350 H 2.0437396816350883 72.97643649313909 19.633683626565414 H 0.0 **** 0.06
18351 C 24.207085317796952 104.99528526178 45.37689970229087 C 0.0 **** -0.24
18352 H 24.084542968624845 105.9506933362228 45.88676846557968 H 0.0 **** 0.06
18353 H 24.88017314164989 105.11991109848401 44.528545659352005 H 0.0 **** 0.06
18354 H 23.23734192247312 104.64505494805178 45.023780962145 H 0.0 **** 0.06
18355 H 24.626850624935997 104.26630125737074 46.07050537727207 H 0.0 **** 0.06
18356 C 82.08259689042092 86.53504523501744 28.98945083226502 C 0.0 **** -0.24
18357 H 82.71581772736178 85.77703337080922 29.45221088407925 H 0.0 **** 0.06
18358 H 81.89476998274239 87.33651267002173 29.70396213104408 H 0.0 **** 0.06
18359 H 81.13544478218637 86.0839804265133 28.691399015947667 H 0.0 **** 0.06
18360 H 82.58462439964256 86.94079527724202 28.11144420235138 H 0.0 **** 0.06
18361 C 2.8402795489167545 66.37289349752055 66.09541838201295 C 0.0 **** -0.24
18362 H 3.8321168092750497 66.04148768937696 66.40332818163401 H 0.0 **** 0.06
18363 H 2.924526617352882 66.99151550764839 65.20150413921593 H 0.0 **** 0.06
18364 H 2.3864883839847266 66.95510430041614 66.89824627423744 H 0.0 **** 0.06
18365 H 2.2185512033504153 65.50445944398408 65.8798969306971 H 0.0 **** 0.06
18366 C 48.75453130832767 63.17135920655613 107.99265989974099 C 0.0 **** -0.24
18367 H 49.4967119661259 63.108720115831375 108.78928570713917 H 0.0 **** 0.06
18368 H 48.80599325841354 64.15550200095083 107.52647534299865 H 0.0 **** 0.06
18369 H 47.75926584557337 63.01843338652782 108.41079119488204 H 0.0 **** 0.06
18370 H 48.95765705488256 62.40382093210201 107.24624628495465 H 0.0 **** 0.06
18371 C 8.672576990869377 0.9722552106948257 9.069141249349173 C 0.0 **** -0.24
18372 H 7.710547236462528 0.5882550210498465 8.729376606664687 H 0.0 **** 0.06
18373 H 9.235258331491506 1.349155528797212 8.215074947288258 H 0.0 **** 0.06
18374 H 9.233918286868596 0.17212956124562595 9.550491664178878 H 0.0 **** 0.06
18375 H 8.509086588277924 1.781069031625762 9.782106567509175 H 0.0 **** 0.06
18376 C 7.984252702247716 102.94173541970841 88.27615585553389 C 0.0 **** -0.24
18377 H 9.050143292393415 103.09466632345234 88.10877083333548 H 0.0 **** 0.06
18378 H 7.584374183937001 102.28955892283514 87.50003966040313 H 0.0 **** 0.06
18379 H 7.470215153659495 103.90279238758006 88.2452150461605 H 0.0 **** 0.06
18380 H 7.832808098525106 102.48014459037998 89.25223211452979 H 0.0 **** 0.06
18381 C 65.49116365354604 95.69728107360973 23.558320545076953 C 0.0 **** -0.24
18382 H 64.47376726731846 96.04958468538254 23.3847111585753 H 0.0 **** 0.06
18383 H 66.1954243689168 96.369916830145 23.06915968123974 H 0.0 **** 0.06
18384 H 65.6017254784237 94.69334213480391 23.148687698279076 H 0.0 **** 0.06
18385 H 65.69076159974156 95.67714846234398 24.62954400839476 H 0.0 **** 0.06
18386 C 100.1936860271079 100.19111076493166 91.64642207791812 C 0.0 **** -0.24
18387 H 100.90506102094707 99.49415810337285 92.0899251979807 H 0.0 **** 0.06
18388 H 100.49693925565273 100.41893830737607 90.6247917870225 H 0.0 **** 0.06
18389 H 100.17163695587402 101.10974352174566 92.2335414369885 H 0.0 **** 0.06
18390 H 99.20141203545714 99.74076443923624 91.64077715136878 H 0.0 **** 0.06
18391 C 86.27433563538193 56.95332724866495 97.16078991570112 C 0.0 **** -0.24
18392 H 87.24862923244837 57.23175566162962 97.56378254096416 H 0.0 **** 0.06
18393 H 85.7969292577153 56.23683042902019 97.82999235533799 H 0.0 **** 0.06
18394 H 86.40259569214874 56.50367351444413 96.17709679073306 H 0.0 **** 0.06
18395 H 85.64984443109188 57.84272934535818 97.07556640715592 H 0.0 **** 0.06
18396 C 22.92618783657153 83.39034988435807 93.22120234447863 C 0.0 **** -0.24
18397 H 23.386671258356557 83.71849576644834 94.15330518905682 H 0.0 **** 0.06
18398 H 23.181002490939903 82.34574525731895 93.03856299140637 H 0.0 **** 0.06
18399 H 23.29332107041077 84.00366476783162 92.39885425471374 H 0.0 **** 0.06
18400 H 21.84390543278974 83.49284906259831 93.2956876865139 H 0.0 **** 0.06
18401 C 13.03306522958087 44.85623761715928 18.539006643176677 C 0.0 **** -0.24
18402 H 12.060659482979588 44.56433101614764 18.93699163129567 H 0.0 **** 0.06
18403 H 13.258329213585228 45.878043260148154 18.844071789370275 H 0.0 **** 0.06
18404 H 13.013166044953664 44.79728431979499 17.45139924856585 H 0.0 **** 0.06
18405 H 13.799566636452425 44.18429299309581 18.925734497032863 H 0.0 **** 0.06
18406 C 77.29387465168293 103.39424322555385 10.938947303396485 C 0.0 **** -0.24
18407 H 77.56040859701784 104.02723784775208 11.784782866916846 H 0.0 **** 0.06
18408 H 77.79274694686808 102.42989687851588 11.03602435922167 H 0.0 **** 0.06
18409 H 77.60831661667066 103.87526522996757 10.012620425371225 H 0.0 **** 0.06
18410 H 76.21454602062215 103.24588412158155 10.922466320765565 H 0.0 **** 0.06
18411 C 65.64522325177353 91.81964199842778 62.43504441765202 C 0.0 **** -0.24
18412 H 66.53222499656763 91.76607125633865 63.06578004698946 H 0.0 **** 0.06
18413 H 64.75380810206329 91.6958784822503 63.05081309966576 H 0.0 **** 0.06
18414 H 65.68305341235938 91.02885310970834 61.68692269679886 H 0.0 **** 0.06
18415 H 65.61221145533636 92.78949726315028 61.93801683998947 H 0.0 **** 0.06
18416 C 9.191662868214536 104.88854276505592 9.718020257035988 C 0.0 **** -0.24
18417 H 10.206821846489902 104.49855780757545 9.649651210401132 H 0.0 **** 0.06
18418 H 8.968304065181968 105.13978937534415 10.754576256160234 H 0.0 **** 0.06
18419 H 8.488633422500754 104.13295295187814 9.366566055887262 H 0.0 **** 0.06
18420 H 9.103278276121472 105.78157779075073 9.099243235426002 H 0.0 **** 0.06
18421 C 21.519605714182987 45.222658026568425 2.2780415641163927 C 0.0 **** -0.24
18422 H 22.372723439993322 44.58131640093171 2.497209083533008 H 0.0 **** 0.06
18423 H 21.604488992878913 45.605421595821454 1.26098538595231 H 0.0 **** 0.06
18424 H 21.502470622002548 46.056832907662624 2.980448943297773 H 0.0 **** 0.06
18425 H 20.598250544630574 44.64829867316696 2.374001806701102 H 0.0 **** 0.06
18426 C 57.491168866358336 86.61845163751542 34.59217471338016 C 0.0 **** -0.24
18427 H 58.26476175554364 86.2145543177524 33.93970069768892 H 0.0 **** 0.06
18428 H 56.519217273777265 86.22688030445835 34.29027499066535 H 0.0 **** 0.06
18429 H 57.48383215034038 87.70644901511349 34.51585070292509 H 0.0 **** 0.06
18430 H 57.69637873031697 86.3279282148365 35.62201032361534 H 0.0 **** 0.06
18431 C 47.50516686140651 111.69849648760504 26.818032001750908 C 0.0 **** -0.24
18432 H 47.42953101945875 112.76717302929853 27.02570293862317 H 0.0 **** 0.06
18433 H 48.123168604440195 111.22377441441768 27.58041590243164 H 0.0 **** 0.06
18434 H 47.95843423863852 111.55078228921252 25.837704708475712 H 0.0 **** 0.06
18435 H 46.50962387513505 111.25567942401949 26.828828084337204 H 0.0 **** 0.06
18436 C 72.69288949473213 104.14123328382891 12.866620713483911 C 0.0 **** -0.24
18437 H 73.49657061343527 104.83020030414175 13.128012258011296 H 0.0 **** 0.06
18438 H 71.92014833862129 104.6784151207726 12.315510702791713 H 0.0 **** 0.06
18439 H 72.26566258795066 103.72008676746668 13.775807757582655 H 0.0 **** 0.06
18440 H 73.09060855612296 103.33818746158141 12.245385334593934 H 0.0 **** 0.06
18441 C 7.806844544759045 59.15470373025543 0.15202161553496296 C 0.0 **** -0.24
18442 H 8.035494529763042 58.120707330104004 -0.10727560852701856 H 0.0 **** 0.06
18443 H 8.344810125071575 59.82385095742723 -0.5212699614897929 H 0.0 **** 0.06
18444 H 8.113026600465531 59.34831740363625 1.179310570135513 H 0.0 **** 0.06
18445 H 6.734992085813701 59.32502359870457 0.053818737027967245 H 0.0 **** 0.06
18446 C 94.81033460114006 88.93230262163848 30.876969635914094 C 0.0 **** -0.24
18447 H 95.16981750484155 89.78920018408158 30.308301956127394 H 0.0 **** 0.06
18448 H 93.7207795451493 88.90859211535897 30.849383380913878 H 0.0 **** 0.06
18449 H 95.14637780746816 89.01501294539375 31.910883748372044 H 0.0 **** 0.06
18450 H 95.20489942227675 88.01476138212078 30.439205855221758 H 0.0 **** 0.06
18451 C 83.6983761990769 102.1580114326753 74.58374358591311 C 0.0 **** -0.24
18452 H 83.45105087522805 102.99888036505786 75.23145493600217 H 0.0 **** 0.06
18453 H 83.94618524160484 102.527622135959 73.5881733687203 H 0.0 **** 0.06
18454 H 82.84280910914515 101.48560471518584 74.51949750305062 H 0.0 **** 0.06
18455 H 84.55227419867506 101.62063595710197 74.99617805265098 H 0.0 **** 0.06
18456 C 86.87312562221621 38.683123879796284 48.13199517020348 C 0.0 **** -0.24
18457 H 87.01971979834624 38.83985346431831 47.06390608002397 H 0.0 **** 0.06
18458 H 86.96024516507288 39.636441360939415 48.65419571744266 H 0.0 **** 0.06
18459 H 87.63074001619194 37.994024287793934 48.50503614125597 H 0.0 **** 0.06
18460 H 85.88283281537022 38.26264883970572 48.30568242132259 H 0.0 **** 0.06
18461 C 87.67924841169986 42.3718250848234 43.391730839938994 C 0.0 **** -0.24
18462 H 87.7601027405328 41.86645862528681 42.4299800195964 H 0.0 **** 0.06
18463 H 88.27701317087391 43.28398411501533 43.374048223834706 H 0.0 **** 0.06
18464 H 88.04521869657486 41.713106219200625 44.179467224607485 H 0.0 **** 0.06
18465 H 86.63600265688609 42.623327120099816 43.58354957840316 H 0.0 **** 0.06
18466 C 14.358860606727347 108.92578517564053 56.875764218927515 C 0.0 **** -0.24
18467 H 13.498099373184601 108.56388188914225 57.43913759970752 H 0.0 **** 0.06
18468 H 14.496156886242602 108.30954859644935 55.98676554290623 H 0.0 **** 0.06
18469 H 15.251038328083808 108.86730575019106 57.50055182608568 H 0.0 **** 0.06
18470 H 14.190208696250465 109.9608228103285 56.57999240158293 H 0.0 **** 0.06
18471 C 1.4347081092380023 106.21218962355695 83.58693539397865 C 0.0 **** -0.24
18472 H 1.7256798625747791 105.43525516733962 84.29473603372304 H 0.0 **** 0.06
18473 H 1.1232738549871755 105.74989810191033 82.64971946402875 H 0.0 **** 0.06
18474 H 2.282511455643359 106.87157221290336 83.40368577844802 H 0.0 **** 0.06
18475 H 0.6081088891441198 106.7890765789567 84.00044295161632 H 0.0 **** 0.06
18476 C 19.368511014561307 46.907186082979536 42.1502569778485 C 0.0 **** -0.24
18477 H 19.756989619216256 47.88250472371726 41.856659758612835 H 0.0 **** 0.06
18478 H 19.319794423745634 46.25665086769794 41.27735378467537 H 0.0 **** 0.06
18479 H 18.370643058307564 47.02645292100459 42.571596886147006 H 0.0 **** 0.06
18480 H 20.02747457782067 46.464440989051525 42.89730463835568 H 0.0 **** 0.06
18481 C 64.76104957055162 67.10327934175075 66.92568395708821 C 0.0 **** -0.24
18482 H 65.63280429706651 66.51174820767437 67.20500454638588 H 0.0 **** 0.06
18483 H 64.71301330702903 67.19052028538209 65.84045453494332 H 0.0 **** 0.06
18484 H 64.83910532239054 68.09685080588667 67.36757586704525 H 0.0 **** 0.06
18485 H 63.857649365804775 66.61284749906883 67.29071706471046 H 0.0 **** 0.06
18486 C 30.802853180683883 96.02456292134752 29.79042409032246 C 0.0 **** -0.24
18487 H 30.990301163729328 96.01582318064334 28.716450026202892 H 0.0 **** 0.06
18488 H 29.744705698287717 95.84010385524937 29.975713442999222 H 0.0 **** 0.06
18489 H 31.080709856701745 96.9952762490895 30.20000881195034 H 0.0 **** 0.06
18490 H 31.397622481113743 95.24520395148846 30.267824885794653 H 0.0 **** 0.06
18491 C 35.52074790660808 66.3259371963488 82.51554436066058 C 0.0 **** -0.24
18492 H 35.61370471456638 67.10148383085914 81.75489998069406 H 0.0 **** 0.06
18493 H 36.32321517075016 65.59796285922639 82.392873695232 H 0.0 **** 0.06
18494 H 34.55768492206113 65.82711005353877 82.41077073149151 H 0.0 **** 0.06
18495 H 35.590181882598756 66.77821553338052 83.50494853974422 H 0.0 **** 0.06
18496 C 112.50542882499238 14.871779608980987 16.456920709129648 C 0.0 **** -0.24
18497 H 112.72811797751805 15.849281044747599 16.029353330348926 H 0.0 **** 0.06
18498 H 112.88740004845809 14.09149743999427 15.798468643911349 H 0.0 **** 0.06
18499 H 111.426720814603 14.760543994861592 16.566150034691148 H 0.0 **** 0.06
18500 H 112.98123373571767 14.787163148504192 17.434732153070527 H 0.0 **** 0.06
18501 C 112.29326210927735 95.73596141359795 27.134702159143387 C 0.0 **** -0.24
18502 H 111.9097202118055 96.47566460210675 27.836038087232566 H 0.0 **** 0.06
18503 H 111.6053364614865 94.8910356573792 27.086877118608292 H 0.0 **** 0.06
18504 H 113.27137378980677 95.39007326903888 27.46992798817147 H 0.0 **** 0.06
18505 H 112.38624302235968 96.18538135617518 26.145995095202437 H 0.0 **** 0.06
18506 C 100.15035541762887 43.24899007672403 12.316808539652683 C 0.0 **** -0.24
18507 H 99.9757622035558 43.933056076229434 13.147829213232427 H 0.0 **** 0.06
18508 H 101.06006562205886 42.676677126917525 12.502492964719067 H 0.0 **** 0.06
18509 H 100.26267206055627 43.820052807368114 11.394779384816218 H 0.0 **** 0.06
18510 H 99.3047200956924 42.56834542131119 12.22236226217575 H 0.0 **** 0.06
18511 C 62.34262025179087 17.994430866257517 48.60126688302529 C 0.0 **** -0.24
18512 H 62.71292422506004 18.724497492609828 47.88309493087053 H 0.0 **** 0.06
18513 H 62.83835230056244 17.03741583256999 48.43564259405099 H 0.0 **** 0.06
18514 H 61.267156297945014 17.87267585279244 48.47453347512828 H 0.0 **** 0.06
18515 H 62.55246323497115 18.34117810807294 49.6127972216907 H 0.0 **** 0.06
18516 C 101.08240178841874 57.61469750055056 79.93125095110204 C 0.0 **** -0.24
18517 H 100.420034769001 58.47686724417352 79.86293128432501 H 0.0 **** 0.06
18518 H 100.73780544628974 56.95328663716356 80.72670709018709 H 0.0 **** 0.06
18519 H 102.0949945607141 57.95263425392167 80.15277080815676 H 0.0 **** 0.06
18520 H 101.07869499811608 57.07685366999269 78.98335504649197 H 0.0 **** 0.06
18521 C 49.0410984775972 30.626499079893456 60.835363966204106 C 0.0 **** -0.24
18522 H 48.78813890803993 30.59779736394116 59.7752181778904 H 0.0 **** 0.06
18523 H 48.12798011376821 30.581738864015428 61.42818073079413 H 0.0 **** 0.06
18524 H 49.57405659435188 31.55122708017973 61.0556754237715 H 0.0 **** 0.06
18525 H 49.675150220255105 29.77392501045668 61.079153315403154 H 0.0 **** 0.06
18526 C 23.03861908264446 33.51734383638572 51.862602637292696 C 0.0 **** -0.24
18527 H 23.491529241230694 33.25785832462938 52.818689955395485 H 0.0 **** 0.06
18528 H 23.539458119082212 32.971592288214424 51.063863746538004 H 0.0 **** 0.06
18529 H 23.140322147246877 34.5890115898666 51.691310181067365 H 0.0 **** 0.06
18530 H 21.981302452170553 33.250979869621716 51.87813411986059 H 0.0 **** 0.06
18531 C 57.68751910778633 26.9748912519498 14.92214612539982 C 0.0 **** -0.24
18532 H 57.051032569243205 26.247425187703328 14.418095118457103 H 0.0 **** 0.06
18533 H 57.322599543731314 27.980860859106798 14.715806044212144 H 0.0 **** 0.06
18534 H 58.71014904268978 26.87663689106776 14.559186853092484 H 0.0 **** 0.06
18535 H 57.66459006558932 26.793550831338592 15.996875542733903 H 0.0 **** 0.06
18536 C 39.25245217155985 59.829908507071615 15.963214454089439 C 0.0 **** -0.24
18537 H 39.45738519435406 60.68609111915277 15.31927713467394 H 0.0 **** 0.06
18538 H 40.12021829956536 59.16979514229906 15.976088053778312 H 0.0 **** 0.06
18539 H 38.38770301915191 59.28727688960917 15.579414633195142 H 0.0 **** 0.06
18540 H 39.04389439178276 60.17815523918372 16.97436390116235 H 0.0 **** 0.06
18541 C 32.698925529534336 25.34908440235006 38.42019311476298 C 0.0 **** -0.24
18542 H 32.61578394705401 24.515758502196263 39.11753003757917 H 0.0 **** 0.06
18543 H 31.73842287368734 25.860454686360924 38.348244973385704 H 0.0 **** 0.06
18544 H 32.984326017812464 24.97274872046603 37.436674159495965 H 0.0 **** 0.06
18545 H 33.45701033659975 26.046062726305166 38.776520202394636 H 0.0 **** 0.06
18546 C 29.226164472784745 89.12713341188592 111.69423630353015 C 0.0 **** -0.24
18547 H 29.20988573713302 89.5529168905463 112.69799019623758 H 0.0 **** 0.06
18548 H 28.255113449542534 89.27854515602016 111.22130516198757 H 0.0 **** 0.06
18549 H 29.438037284699988 88.06013200410413 111.75543468385922 H 0.0 **** 0.06
18550 H 29.999672733693615 89.61866336740997 111.10401289419889 H 0.0 **** 0.06
18551 C 107.05191738914974 61.562797468110695 76.03742379712469 C 0.0 **** -0.24
18552 H 106.71594647095817 61.532795056504106 77.07311327386304 H 0.0 **** 0.06
18553 H 106.71841769191622 62.491526667462274 75.57367229370249 H 0.0 **** 0.06
18554 H 106.63182766080001 60.71593124204784 75.49435231718118 H 0.0 **** 0.06
18555 H 108.14001296885515 61.510031627624805 76.00610058907134 H 0.0 **** 0.06
18556 C 71.10380696084945 79.12472114454428 11.249993625249033 C 0.0 **** -0.24
18557 H 72.02195263003034 79.71239715765824 11.270459732177471 H 0.0 **** 0.06
18558 H 70.95205677590633 78.72513794744557 10.247695020042272 H 0.0 **** 0.06
18559 H 70.26041737655481 79.75906264260678 11.521650077470895 H 0.0 **** 0.06
18560 H 71.18434500010017 78.30239721606429 11.96136512274478 H 0.0 **** 0.06
18561 C 100.42682827566756 42.35927192894684 5.54449927494378 C 0.0 **** -0.24
18562 H 100.54979530716292 42.9953586482531 4.666785598297528 H 0.0 **** 0.06
18563 H 101.10138868639592 41.505951386193885 5.471720741300983 H 0.0 **** 0.06
18564 H 99.396848357144 42.006687962765625 5.595668468242435 H 0.0 **** 0.06
18565 H 100.66015631515882 42.93247302595785 6.442485349759176 H 0.0 **** 0.06
18566 C 69.4206624659688 73.9257611081818 40.859483232220185 C 0.0 **** -0.24
18567 H 69.16271103543977 74.31518136097986 41.84423208619339 H 0.0 **** 0.06
18568 H 70.29113630038717 73.27548695551945 40.94354983627056 H 0.0 **** 0.06
18569 H 69.64971365787608 74.75503679239159 40.18964532428524 H 0.0 **** 0.06
18570 H 68.57912563878602 73.35905034651125 40.46023881203976 H 0.0 **** 0.06
18571 C 61.781699316457996 29.962844856969546 67.16482797793483 C 0.0 **** -0.24
18572 H 61.425223455294905 29.18813811870657 66.4870951893495 H 0.0 **** 0.06
18573 H 61.02662904651441 30.150924191602968 67.9295694817352 H 0.0 **** 0.06
18574 H 61.96769990691424 30.879432522132717 66.60412192315934 H 0.0 **** 0.06
18575 H 62.7053446898064 29.633243983513964 67.64002882831167 H 0.0 **** 0.06
18576 C 107.96455931354362 74.61155115176035 17.656113808161166 C 0.0 **** -0.24
18577 H 108.91681879372217 75.14079431019104 17.684537896264032 H 0.0 **** 0.06
18578 H 107.16903614599329 75.3093499279322 17.39249246199671 H 0.0 **** 0.06
18579 H 107.76016773973004 74.17890293078005 18.634913036336798 H 0.0 **** 0.06
18580 H 108.01268848314803 73.81746595081921 16.910593386163384 H 0.0 **** 0.06
18581 C 20.856356340760552 84.34206337680942 14.361238449539371 C 0.0 **** -0.24
18582 H 21.41509270152988 84.40218680156715 15.29519360959813 H 0.0 **** 0.06
18583 H 20.007429054924987 83.67015893632353 14.488105636244143 H 0.0 **** 0.06
18584 H 21.506978240965292 83.96115878328769 13.573238897808551 H 0.0 **** 0.06
18585 H 20.498098501175704 85.3347244033954 14.08788919351531 H 0.0 **** 0.06
18586 C 21.341799897847352 9.630245351314713 94.44645056943097 C 0.0 **** -0.24
18587 H 21.946758099754447 10.530433202185478 94.33957786050661 H 0.0 **** 0.06
18588 H 21.95209040191284 8.753506632479642 94.22923150723392 H 0.0 **** 0.06
18589 H 20.503531389019543 9.671059678845609 93.75018873193571 H 0.0 **** 0.06
18590 H 20.963595702499703 9.565848649820197 95.46610834154669 H 0.0 **** 0.06
18591 C 5.192057199344163 16.455269233522728 64.97852323588424 C 0.0 **** -0.24
18592 H 4.797984070910559 17.002122069552257 65.83564445583809 H 0.0 **** 0.06
18593 H 6.2331524953519875 16.733472896916965 64.81713968126647 H 0.0 **** 0.06
18594 H 4.6072710686771075 16.701273368253112 64.09188206469972 H 0.0 **** 0.06
18595 H 5.127379152473566 15.383618490897248 65.17106651910868 H 0.0 **** 0.06
18596 C 90.29756773668294 50.62778164535286 100.99463932292011 C 0.0 **** -0.24
18597 H 90.70787840063738 51.46249816605049 100.42664384984676 H 0.0 **** 0.06
18598 H 89.86453211349746 49.90004126580216 100.30900426784552 H 0.0 **** 0.06
18599 H 89.52650158177838 50.994183613122765 101.67220552661544 H 0.0 **** 0.06
18600 H 91.09302168046011 50.15668026221701 101.57172933144443 H 0.0 **** 0.06
18601 C 1.2499858673236588 34.18904683113129 22.789510329067525 C 0.0 **** -0.24
18602 H 1.8038725442165742 34.75075252522828 23.541579236310326 H 0.0 **** 0.06
18603 H 0.6188418498519468 34.87107482906387 22.219627500296554 H 0.0 **** 0.06
18604 H 0.6277653240848196 33.44154220529029 23.279990428856195 H 0.0 **** 0.06
18605 H 1.9515356464936673 33.69498422675352 22.11696332876022 H 0.0 **** 0.06
18606 C 31.025876083694385 37.744806444781574 18.871594533943608 C 0.0 **** -0.24
18607 H 30.647845841287847 38.31100600580493 18.020709965935055 H 0.0 **** 0.06
18608 H 31.46680143571521 38.43091575343186 19.596805820279684 H 0.0 **** 0.06
18609 H 31.783674308177297 37.0398465542126 18.530879479093727 H 0.0 **** 0.06
18610 H 30.206138571954995 37.200196528264115 19.33874736394381 H 0.0 **** 0.06
18611 C 66.7705191877717 30.089864646825987 0.7939728762397635 C 0.0 **** -0.24
18612 H 65.71436134752992 29.966811223685397 1.0354535335843877 H 0.0 **** 0.06
18613 H 66.91257447821476 31.029917269346413 0.26007138911344896 H 0.0 **** 0.06
18614 H 67.09885550057936 29.261528947016814 0.1672061342397484 H 0.0 **** 0.06
18615 H 67.35422695177544 30.10238143927225 1.714996234018642 H 0.0 **** 0.06
18616 C 7.481603446252734 20.39434310368371 104.06195042218485 C 0.0 **** -0.24
18617 H 8.418246962360925 19.906560054971067 104.33220774486327 H 0.0 **** 0.06
18618 H 7.693923441756496 21.377075513968066 103.6399958469425 H 0.0 **** 0.06
18619 H 6.860062070869077 20.505354121403002 104.94988015082058 H 0.0 **** 0.06
18620 H 6.956353966365967 19.78720452215873 103.32401738313803 H 0.0 **** 0.06
18621 C 68.52639230516269 26.339497409211276 25.82552055537218 C 0.0 **** -0.24
18622 H 68.28604569149405 27.403183741616772 25.82803920349221 H 0.0 **** 0.06
18623 H 68.97264734263075 26.065742188187727 26.781632953469256 H 0.0 **** 0.06
18624 H 69.23014592814437 26.12772768861481 25.02106995695877 H 0.0 **** 0.06
18625 H 67.61389857913497 25.761796936640906 25.67221740885978 H 0.0 **** 0.06
18626 C 107.44324839321473 4.23457583351103 112.21375866995677 C 0.0 **** -0.24
18627 H 107.77902079527993 5.269593568562129 112.14833251144253 H 0.0 **** 0.06
18628 H 108.30785496577658 3.5718988164023813 112.20819479037942 H 0.0 **** 0.06
18629 H 106.80360979561067 4.006020683574775 111.36058022152787 H 0.0 **** 0.06
18630 H 106.88167055350834 4.093422879406319 113.1367573228076 H 0.0 **** 0.06
18631 C 106.58205918701614 4.246922253872214 92.2971090200092 C 0.0 **** -0.24
18632 H 105.6308798100039 4.306844899577015 92.82708592678145 H 0.0 **** 0.06
18633 H 106.53004498367548 4.849104052237095 91.38931550347704 H 0.0 **** 0.06
18634 H 106.78727297620046 3.2099175890839717 92.03520273662079 H 0.0 **** 0.06
18635 H 107.37818608014459 4.624416001097899 92.93851747731165 H 0.0 **** 0.06
18636 C 100.66490714733982 45.20120922591714 58.05845489578635 C 0.0 **** -0.24
18637 H 100.98572055970595 44.47534496772667 58.80547846180628 H 0.0 **** 0.06
18638 H 99.58208206531492 45.31796554284145 58.106685743313186 H 0.0 **** 0.06
18639 H 100.94975887005847 44.85021769925905 57.06605130033874 H 0.0 **** 0.06
18640 H 101.14403148908389 46.16050101405472 58.25490472796492 H 0.0 **** 0.06
18641 C 49.43089385937082 108.60781120546595 110.17774454156894 C 0.0 **** -0.24
18642 H 49.56167644745088 109.55277217300251 109.65094093071926 H 0.0 **** 0.06
18643 H 48.677952270458036 108.00789839346953 109.66512767108651 H 0.0 **** 0.06
18644 H 49.106104894401874 108.80250723564221 111.19975332924137 H 0.0 **** 0.06
18645 H 50.37700183676408 108.06672750409855 110.19328528423053 H 0.0 **** 0.06
18646 C 98.16648370081836 29.62151377292364 106.58214198888479 C 0.0 **** -0.24
18647 H 99.14218757346808 29.90595967771943 106.1869471943157 H 0.0 **** 0.06
18648 H 98.02459193575902 28.547564044414365 106.45916586538794 H 0.0 **** 0.06
18649 H 97.3856975848704 30.155893328119397 106.04110880075802 H 0.0 **** 0.06
18650 H 98.11523235406685 29.8764517357343 107.6399984269757 H 0.0 **** 0.06
18651 C 63.84985358939619 65.30191812372377 87.39144767740714 C 0.0 **** -0.24
18652 H 62.86198990631365 64.94669073382795 87.68458625984528 H 0.0 **** 0.06
18653 H 64.56391328606867 65.08779497987993 88.18740149825396 H 0.0 **** 0.06
18654 H 63.812265760823465 66.37656518805923 87.21562623293738 H 0.0 **** 0.06
18655 H 64.1614219846974 64.79532208796675 86.47764736126919 H 0.0 **** 0.06
18656 C 90.02902044035014 95.91008473466968 82.21273737256644 C 0.0 **** -0.24
18657 H 89.95732523598443 95.45436831222005 81.22539512961322 H 0.0 **** 0.06
18658 H 91.07723472770755 95.99145507683193 82.50034659422482 H 0.0 **** 0.06
18659 H 89.49967204345504 95.29164759922176 82.93749330734403 H 0.0 **** 0.06
18660 H 89.58039975008413 96.9040526169756 82.18649202845353 H 0.0 **** 0.06
18661 C 88.95194367363507 65.33090497825566 50.53264513345962 C 0.0 **** -0.24
18662 H 88.5794945799932 66.31438839331054 50.821441785221275 H 0.0 **** 0.06
18663 H 88.8227400165758 64.63590966355594 51.36357980851415 H 0.0 **** 0.06
18664 H 90.008875464612 65.40269156870716 50.279407760489875 H 0.0 **** 0.06
18665 H 88.39420370216482 64.9720087138569 49.66758097873609 H 0.0 **** 0.06
18666 C 10.551527812520789 5.861720621245816 37.926968213161075 C 0.0 **** -0.24
18667 H 9.519853185280738 6.0196145281085265 38.24309228789812 H 0.0 **** 0.06
18668 H 10.973075526665525 6.805472278299032 37.58034486174655 H 0.0 **** 0.06
18669 H 10.57396530812855 5.1337118440059335 37.115916315768345 H 0.0 **** 0.06
18670 H 11.135533701883986 5.488340045872482 38.76791377146529 H 0.0 **** 0.06
18671 C 68.73913065434581 43.59788362671844 13.801688292122918 C 0.0 **** -0.24
18672 H 68.50372830750504 44.130040519546526 12.879832997422994 H 0.0 **** 0.06
18673 H 69.76212688810315 43.82702269467973 14.101348806356384 H 0.0 **** 0.06
18674 H 68.63979228975347 42.52488025559421 13.636128412876971 H 0.0 **** 0.06
18675 H 68.0512444480743 43.90953707843033 14.58702199449121 H 0.0 **** 0.06
18676 C 49.18042014901681 66.71449154792765 71.0852983039187 C 0.0 **** -0.24
18677 H 49.90836761684466 66.80685445693257 71.89131937508279 H 0.0 **** 0.06
18678 H 48.28987904516194 67.2923913356712 71.33168163656754 H 0.0 **** 0.06
18679 H 48.910400536072984 65.66568511681237 70.95964838590183 H 0.0 **** 0.06
18680 H 49.61517295274015 67.09106229086206 70.15927191206043 H 0.0 **** 0.06
18681 C 96.20405379399654 108.16996545471736 16.67006542701793 C 0.0 **** -0.24
18682 H 96.19911697520007 107.11654352580209 16.9514038370001 H 0.0 **** 0.06
18683 H 97.15807335429699 108.41695122657154 16.204133988941834 H 0.0 **** 0.06
18684 H 96.06335876004684 108.78311314173362 17.55981324015309 H 0.0 **** 0.06
18685 H 95.3946149804282 108.36064548670146 15.965213430380885 H 0.0 **** 0.06
18686 C 86.38362853410493 8.513586763541113 91.66231918819145 C 0.0 **** -0.24
18687 H 86.4716181542698 8.43180829514911 92.74554007113545 H 0.0 **** 0.06
18688 H 87.37113605504229 8.679036477680881 91.22985559308447 H 0.0 **** 0.06
18689 H 85.7326108675411 9.351060567048194 91.4123292042394 H 0.0 **** 0.06
18690 H 85.96151952447215 7.591837171932923 91.26142632548809 H 0.0 **** 0.06
18691 C 19.64184015254847 47.61813841220813 22.043795359899832 C 0.0 **** -0.24
18692 H 18.772789393170115 48.06413721968008 21.560315039141642 H 0.0 **** 0.06
18693 H 20.15447998057914 48.37464753212553 22.638157844593138 H 0.0 **** 0.06
18694 H 20.320748529648256 47.23114336688542 21.28425101557437 H 0.0 **** 0.06
18695 H 19.318415962945096 46.802913106457275 22.691428677255544 H 0.0 **** 0.06
18696 C 16.614777661789503 97.43924949193135 104.68409069805688 C 0.0 **** -0.24
18697 H 16.0649761221257 98.06217177445839 105.38965819214266 H 0.0 **** 0.06
18698 H 17.616145210299436 97.2495561723731 105.07224522878292 H 0.0 **** 0.06
18699 H 16.68764230271745 97.95256067630984 103.72570418082461 H 0.0 **** 0.06
18700 H 16.09049959857566 96.49263669496747 104.55098492655881 H 0.0 **** 0.06
18701 C 88.55736746567149 5.2972692576188365 38.907508932937816 C 0.0 **** -0.24
18702 H 89.30144859545925 5.1854893034659 38.118874097605584 H 0.0 **** 0.06
18703 H 88.33786199369737 4.320379864327464 39.34000972252608 H 0.0 **** 0.06
18704 H 87.6455058453424 5.722587492340992 38.489030569391474 H 0.0 **** 0.06
18705 H 88.94552031858112 5.958335042045377 39.68228294658931 H 0.0 **** 0.06
18706 C 40.91479202850627 27.261224202746206 82.62128927759613 C 0.0 **** -0.24
18707 H 41.36909180528869 27.253194999267095 83.6119106060109 H 0.0 **** 0.06
18708 H 39.9219071073702 27.70701638023388 82.68050291637061 H 0.0 **** 0.06
18709 H 40.83363276982078 26.238991747763208 82.25177828806284 H 0.0 **** 0.06
18710 H 41.53612801460645 27.845521354198354 81.9421642131108 H 0.0 **** 0.06
18711 C 106.32330239438332 51.80723132269975 105.18243183108063 C 0.0 **** -0.24
18712 H 107.21017991142105 52.34222571960353 104.84016036298033 H 0.0 **** 0.06
18713 H 105.46078437416833 52.47360000957741 105.14555503483192 H 0.0 **** 0.06
18714 H 106.4772306544831 51.466910710358206 106.20577550953126 H 0.0 **** 0.06
18715 H 106.1466722940944 50.94787311013647 104.5357034094377 H 0.0 **** 0.06
18716 C 53.39589748076821 30.850140217672617 49.51463269661757 C 0.0 **** -0.24
18717 H 53.03083930394479 29.842511177900718 49.71724987878765 H 0.0 **** 0.06
18718 H 52.71108218129939 31.578678893788123 49.950646333736856 H 0.0 **** 0.06
18719 H 53.455697552135064 31.004915629288178 48.43767686125792 H 0.0 **** 0.06
18720 H 54.385819939942394 30.97165293157306 49.95543268156019 H 0.0 **** 0.06
18721 C 43.16967066866067 99.7741896965656 76.05821322374544 C 0.0 **** -0.24
18722 H 43.524648499766954 98.89604390448346 75.51948225562296 H 0.0 **** 0.06
18723 H 43.65343414653705 100.66578902887593 75.6574464559132 H 0.0 **** 0.06
18724 H 43.4117323848381 99.67341860822475 77.11607459791531 H 0.0 **** 0.06
18725 H 42.09027462031747 99.86178889052559 75.93813454166224 H 0.0 **** 0.06
18726 C 106.33843944071566 82.78124318708359 20.56453707313875 C 0.0 **** -0.24
18727 H 106.83030072338906 83.74462548799048 20.429687463846307 H 0.0 **** 0.06
18728 H 105.44963911493528 82.91065493172144 21.182662473101345 H 0.0 **** 0.06
18729 H 107.02294608173368 82.08895669944314 21.053179458583145 H 0.0 **** 0.06
18730 H 106.04912100511609 82.38198516293869 19.59200773715 H 0.0 **** 0.06
18731 C 105.8749512201222 46.68365616434334 32.92647310198225 C 0.0 **** -0.24
18732 H 105.37463963008796 47.15244390983598 32.078850676061094 H 0.0 **** 0.06
18733 H 105.26387539252502 45.86194199191382 33.29925254417563 H 0.0 **** 0.06
18734 H 106.01622564585128 47.4201459309499 33.71750644540856 H 0.0 **** 0.06
18735 H 106.8450014089683 46.30038863595396 32.60932953287012 H 0.0 **** 0.06
18736 C 92.72369281456244 89.51252547550439 52.08746287396057 C 0.0 **** -0.24
18737 H 92.3235290061464 88.65792341047359 51.542210081135245 H 0.0 **** 0.06
18738 H 92.87542518192782 89.23879858918804 53.1310984495434 H 0.0 **** 0.06
18739 H 92.02131696868454 90.34325876756697 52.02751541185901 H 0.0 **** 0.06
18740 H 93.67571602799771 89.8093216417401 51.64705710311835 H 0.0 **** 0.06
18741 C 89.10364766464198 70.56483987697152 44.44853294616101 C 0.0 **** -0.24
18742 H 88.15621918398054 70.22478014373328 44.029853991423494 H 0.0 **** 0.06
18743 H 89.32926206341656 69.99259395082476 45.34861580693203 H 0.0 **** 0.06
18744 H 89.03074382233874 71.62306846694474 44.698406198640384 H 0.0 **** 0.06
18745 H 89.8976213875749 70.41820188632195 43.71628885070854 H 0.0 **** 0.06
18746 C 68.63565144555463 73.71429656320905 69.85095291483947 C 0.0 **** -0.24
18747 H 69.64880219372475 74.11462786393554 69.82175065621524 H 0.0 **** 0.06
18748 H 68.03219756760785 74.19730554538168 69.08259810474021 H 0.0 **** 0.06
18749 H 68.19817230928706 73.90509616394135 70.83143084199702 H 0.0 **** 0.06
18750 H 68.66326741545831 72.63960285183111 69.66884794680519 H 0.0 **** 0.06
18751 C 33.089138255674776 34.31549388621963 93.46438167379912 C 0.0 **** -0.24
18752 H 33.83887704113724 33.539234280770586 93.31510976100125 H 0.0 **** 0.06
18753 H 32.85948780575314 34.787053662242 92.50882872229911 H 0.0 **** 0.06
18754 H 33.47440513040037 35.063549903805836 94.15667711180694 H 0.0 **** 0.06
18755 H 32.183132533294874 33.87057598337404 93.87653954740074 H 0.0 **** 0.06
18756 C 27.766598337660696 58.61943157323344 80.3853521270301 C 0.0 **** -0.24
18757 H 27.748326005691517 57.56410625513024 80.6588626883466 H 0.0 **** 0.06
18758 H 28.193877771298716 58.72851544880089 79.38782545362562 H 0.0 **** 0.06
18759 H 28.375499455863384 59.169597164145216 81.10376059220289 H 0.0 **** 0.06
18760 H 26.751358457548214 59.01415188395498 80.39075245220508 H 0.0 **** 0.06
18761 C 59.02180957220214 40.35186218641235 20.334746167623706 C 0.0 **** -0.24
18762 H 57.95455252719099 40.4967421341093 20.49860745315752 H 0.0 **** 0.06
18763 H 59.4396402224424 41.23870394788693 19.856815517695537 H 0.0 **** 0.06
18764 H 59.17706788660066 39.48521814921634 19.691899858781483 H 0.0 **** 0.06
18765 H 59.51716620476696 40.187464735570586 21.29201504949853 H 0.0 **** 0.06
18766 C 77.94756659500132 68.63332156700662 90.55181985682648 C 0.0 **** -0.24
18767 H 77.05895717736746 69.10804248494566 90.96933010900204 H 0.0 **** 0.06
18768 H 78.33337748365997 69.24253829355226 89.73365275827058 H 0.0 **** 0.06
18769 H 77.68854145729713 67.6430624635237 90.17828909992215 H 0.0 **** 0.06
18770 H 78.70802649367269 68.54254423417888 91.32765787380424 H 0.0 **** 0.06
18771 C 48.63566986926298 71.67416328517777 61.392108156215436 C 0.0 **** -0.24
18772 H 49.42293477167692 71.10148185273823 61.88091922374708 H 0.0 **** 0.06
18773 H 49.06658045846217 72.26890880987426 60.58541098146964 H 0.0 **** 0.06
18774 H 48.162886844299294 72.33542851042259 62.11850813056679 H 0.0 **** 0.06
18775 H 47.890917344171726 70.99226713680198 60.982861710598264 H 0.0 **** 0.06
18776 C 45.712971912169905 53.271781549609926 100.95045929218887 C 0.0 **** -0.24
18777 H 45.51280023040795 53.746070819396294 101.91045111041143 H 0.0 **** 0.06
18778 H 45.98342377495172 52.227555866313736 101.11070587076046 H 0.0 **** 0.06
18779 H 46.5348240095891 53.787855237521484 100.45448303348905 H 0.0 **** 0.06
18780 H 44.82134811138181 53.32412598708123 100.32553653180156 H 0.0 **** 0.06
18781 C 19.748579017985314 31.00051607381448 87.23300165773054 C 0.0 **** -0.24
18782 H 19.413641485867295 30.175175987902833 86.60513865331825 H 0.0 **** 0.06
18783 H 19.189339656956953 31.901236395735054 86.97657481676143 H 0.0 **** 0.06
18784 H 20.81237051438906 31.173796305398298 87.067369352582 H 0.0 **** 0.06
18785 H 19.579486542626192 30.7535087167459 88.28068884476176 H 0.0 **** 0.06
18786 C 92.18491284137735 22.882520364094347 75.94286666767738 C 0.0 **** -0.24
18787 H 92.12588226618772 21.82158205027821 75.69691594454446 H 0.0 **** 0.06
18788 H 91.40735907237496 23.424111707159426 75.40374203510805 H 0.0 **** 0.06
18789 H 93.16334800938813 23.267988093544744 75.65516426106217 H 0.0 **** 0.06
18790 H 92.04437140449397 23.01432981741783 77.0156871374474 H 0.0 **** 0.06
18791 C 82.8478208671292 106.67055706973557 31.64808746413118 C 0.0 **** -0.24
18792 H 82.65657466537746 106.83755786726206 32.70821199759794 H 0.0 **** 0.06
18793 H 83.92316563279309 106.65573167746587 31.471352587941794 H 0.0 **** 0.06
18794 H 82.39403494713497 107.47286291375679 31.065976579522925 H 0.0 **** 0.06
18795 H 82.41691903515425 105.71494974277888 31.34864855290064 H 0.0 **** 0.06
18796 C 79.23075607150113 27.549074075474948 62.349503228252814 C 0.0 **** -0.24
18797 H 78.17875380218703 27.80439636159474 62.22421509431126 H 0.0 **** 0.06
18798 H 79.83007928470289 28.1229453716347 61.641991484714566 H 0.0 **** 0.06
18799 H 79.37088093954048 26.483812018478574 62.16565228968 H 0.0 **** 0.06
18800 H 79.54285818527782 27.786307491524752 63.366816353877255 H 0.0 **** 0.06
18801 C 62.85003653902879 108.70221963033396 97.72126348728119 C 0.0 **** -0.24
18802 H 62.70564443429902 108.19221079737218 96.76907428714176 H 0.0 **** 0.06
18803 H 62.23312099363602 108.2281497866382 98.4854456977911 H 0.0 **** 0.06
18804 H 62.56296903200598 109.74900551831013 97.61980432671413 H 0.0 **** 0.06
18805 H 63.89923891404044 108.63995186944823 98.01107985261439 H 0.0 **** 0.06
18806 C 42.743731834954474 110.02929214978273 103.32238168844296 C 0.0 **** -0.24
18807 H 43.45527575543673 110.06552953884014 104.1476752879824 H 0.0 **** 0.06
18808 H 42.64085881673046 108.99960445697701 102.97762978148691 H 0.0 **** 0.06
18809 H 43.10472764957453 110.65232463866747 102.50361861385184 H 0.0 **** 0.06
18810 H 41.775720233913546 110.39813957008879 103.65971155890284 H 0.0 **** 0.06
18811 C 105.77022267810864 98.20207222453314 44.49356354006423 C 0.0 **** -0.24
18812 H 105.5663713802011 97.1345457051167 44.56918826790795 H 0.0 **** 0.06
18813 H 106.77517749049798 98.40769684918814 44.863424027418404 H 0.0 **** 0.06
18814 H 105.04251625594912 98.75400606758808 45.088734778907394 H 0.0 **** 0.06
18815 H 105.69544464432059 98.51252217817051 43.45048608933028 H 0.0 **** 0.06
18816 C 4.745484590101398 25.151618093528185 17.158360498636966 C 0.0 **** -0.24
18817 H 5.266003106621525 25.286000228286895 16.21075971777772 H 0.0 **** 0.06
18818 H 4.770100508547273 26.084710756563396 17.72202137035528 H 0.0 **** 0.06
18819 H 5.235501372741396 24.366719756490653 17.733582615693763 H 0.0 **** 0.06
18820 H 3.710333372495313 24.869041632771882 16.967078290721304 H 0.0 **** 0.06
18821 C 66.73821078665716 6.694448291478636 78.39812907251758 C 0.0 **** -0.24
18822 H 66.3520017520409 5.741492956021091 78.76261256306333 H 0.0 **** 0.06
18823 H 65.94375594906325 7.233037882385247 77.8809171335975 H 0.0 **** 0.06
18824 H 67.56322308090049 6.511871383743198 77.70964830287306 H 0.0 **** 0.06
18825 H 67.09175532690966 7.2885307802138755 79.24143133158572 H 0.0 **** 0.06
18826 C 30.897926283610616 86.24914205495497 48.3607764049938 C 0.0 **** -0.24
18827 H 30.941502872618912 85.37285797832453 49.007166116160164 H 0.0 **** 0.06
18828 H 31.60012969431955 86.1268860729931 47.53552959987749 H 0.0 **** 0.06
18829 H 31.162653534184642 87.1375731430748 48.93490629095257 H 0.0 **** 0.06
18830 H 29.888402785676533 86.35938429189434 47.96562414543797 H 0.0 **** 0.06
18831 C 112.43249651484484 23.026987876327684 109.87885106679309 C 0.0 **** -0.24
18832 H 111.47467254528232 23.546675321466594 109.84481249976866 H 0.0 **** 0.06
18833 H 112.42532224716302 22.204446228529907 109.16350347913236 H 0.0 **** 0.06
18834 H 112.5984711372343 22.635455934875697 110.88226550240194 H 0.0 **** 0.06
18835 H 113.2323068709606 23.723771817523975 109.62354526439593 H 0.0 **** 0.06
18836 C 9.356876511562348 1.0092868576413423 34.43494919144919 C 0.0 **** -0.24
18837 H 9.282401291573876 -0.060334318009580556 34.63051339923513 H 0.0 **** 0.06
18838 H 9.880682020989525 1.4923437464345 35.260039030273646 H 0.0 **** 0.06
18839 H 8.35550149607542 1.4315375249165925 34.34259700874165 H 0.0 **** 0.06
18840 H 9.907462258734483 1.1723817645956274 33.50896823915204 H 0.0 **** 0.06
18841 C 62.963076362771695 9.279390135295756 56.55309739737254 C 0.0 **** -0.24
18842 H 62.8477748492022 9.445632915256466 55.481465297159474 H 0.0 **** 0.06
18843 H 62.34108187827814 9.988648173422188 57.09957915610747 H 0.0 **** 0.06
18844 H 64.00771171677786 9.421418460235744 56.8308947162248 H 0.0 **** 0.06
18845 H 62.657431871918426 8.262375917437836 56.79715450153304 H 0.0 **** 0.06
18846 C 101.04931894444206 81.73180858432795 49.82108565255476 C 0.0 **** -0.24
18847 H 100.30268414152926 82.05589509814124 50.54579026071232 H 0.0 **** 0.06
18848 H 101.09041180395954 80.64231161530259 49.80455779632419 H 0.0 **** 0.06
18849 H 102.02461756311845 82.12777672991194 50.10437566339229 H 0.0 **** 0.06
18850 H 100.78035982178167 82.10106554296348 48.83250507504789 H 0.0 **** 0.06
18851 C 6.5638755793972905 82.60758951174807 38.805931804625374 C 0.0 **** -0.24
18852 H 6.029490659455632 83.41113641093409 39.31146365817554 H 0.0 **** 0.06
18853 H 7.537095913460689 82.97074786786828 38.47423369780692 H 0.0 **** 0.06
18854 H 5.986765295864814 82.27493048335509 37.943409888261584 H 0.0 **** 0.06
18855 H 6.701242937632742 81.77363457532016 39.49420991787429 H 0.0 **** 0.06
18856 C 91.5027236315955 111.82764875453404 107.21145592537135 C 0.0 **** -0.24
18857 H 92.46121709323799 112.30417900626037 107.00135667101989 H 0.0 **** 0.06
18858 H 91.14436184035159 111.32280685394144 106.31323547117734 H 0.0 **** 0.06
18859 H 90.78013447692047 112.58432003151702 107.51686036814095 H 0.0 **** 0.06
18860 H 91.62811219299925 111.09993893343923 108.01264283401099 H 0.0 **** 0.06
18861 C 26.28620762000824 72.1070061066527 53.281582715926405 C 0.0 **** -0.24
18862 H 25.958866450614238 72.60625647051816 52.368502031041984 H 0.0 **** 0.06
18863 H 26.19783734314973 72.79558039705336 54.12185738825819 H 0.0 **** 0.06
18864 H 27.325888842482925 71.79706353415344 53.17240399299889 H 0.0 **** 0.06
18865 H 25.66283333562916 71.23114681432759 53.46002419349299 H 0.0 **** 0.06
18866 C 23.031009451882056 14.500721624371714 30.025422998629637 C 0.0 **** -0.24
18867 H 23.283178843964976 13.945109120441995 30.9283015606826 H 0.0 **** 0.06
18868 H 23.929532352696043 14.645800091651559 29.42454921767606 H 0.0 **** 0.06
18869 H 22.61632378722615 15.47081977793476 30.299236361125878 H 0.0 **** 0.06
18870 H 22.2945807024185 13.940466174535057 29.448445550971456 H 0.0 **** 0.06
18871 C 73.83614133886118 82.56611350827416 110.63421108651715 C 0.0 **** -0.24
18872 H 73.44269559561911 83.57944062365843 110.71589343130799 H 0.0 **** 0.06
18873 H 73.05280630569379 81.90103693504818 110.26901410443546 H 0.0 **** 0.06
18874 H 74.17306987019086 82.22773618663956 111.61405053400176 H 0.0 **** 0.06
18875 H 74.67471097496664 82.5573347734508 109.93828274251516 H 0.0 **** 0.06
18876 C 89.3533037045211 26.651077850461462 59.085087612663195 C 0.0 **** -0.24
18877 H 89.3737056989174 25.80217442033441 58.40093984216744 H 0.0 **** 0.06
18878 H 88.98151069171038 26.324272497739173 60.05616618949757 H 0.0 **** 0.06
18879 H 88.69644674547527 27.423850349670317 58.68491386564218 H 0.0 **** 0.06
18880 H 90.36061306039761 27.051555578131882 59.19586575528667 H 0.0 **** 0.06
18881 C 72.30762971468286 47.6888961472101 81.6291796678901 C 0.0 **** -0.24
18882 H 73.23405907219069 47.614284511308114 82.19913157111492 H 0.0 **** 0.06
18883 H 72.4922654376524 48.23902983872185 80.70663159561988 H 0.0 **** 0.06
18884 H 71.55740724505344 48.21209933062309 82.22124132723877 H 0.0 **** 0.06
18885 H 71.94775319821233 46.688157253901124 81.38982436691231 H 0.0 **** 0.06
18886 C 7.708762599358224 37.33631014893615 2.9978211429322528 C 0.0 **** -0.24
18887 H 7.529584334545671 36.34690039321663 2.577150406349613 H 0.0 **** 0.06
18888 H 8.53196463784468 37.28305636459362 3.711330016388075 H 0.0 **** 0.06
18889 H 6.809267648836411 37.68287522524281 3.506819061880943 H 0.0 **** 0.06
18890 H 7.964909854824199 38.03061771795865 2.19829509236337 H 0.0 **** 0.06
18891 C 31.89062212045806 25.843295681336727 51.94427349606897 C 0.0 **** -0.24
18892 H 31.310918404387024 25.094905461552884 51.40395870894926 H 0.0 **** 0.06
18893 H 31.258890710136797 26.706223705774505 52.15686720771873 H 0.0 **** 0.06
18894 H 32.73873444270998 26.154838281871932 51.335698925475356 H 0.0 **** 0.06
18895 H 32.25082527791119 25.417732921281925 52.88054876325887 H 0.0 **** 0.06
18896 C 3.47862621206383 93.26446942541145 63.7379394744961 C 0.0 **** -0.24
18897 H 3.508751695638381 92.51100831212753 62.950233151135706 H 0.0 **** 0.06
18898 H 4.339501517309358 93.13722678279069 64.3945218571015 H 0.0 **** 0.06
18899 H 2.561701701826962 93.15003934213755 64.31501530822322 H 0.0 **** 0.06
18900 H 3.505948671180505 94.25864790752146 63.29162564798207 H 0.0 **** 0.06
18901 C 80.68946070334448 97.92645017160777 29.64948184352869 C 0.0 **** -0.24
18902 H 80.6949915124165 98.36633468557352 28.652221891654875 H 0.0 **** 0.06
18903 H 80.349651794939 98.66908853497705 30.37158957428062 H 0.0 **** 0.06
18904 H 81.69724540882561 97.60033932077718 29.90785197697673 H 0.0 **** 0.06
18905 H 80.01508432032361 97.06941679178496 29.664901001117983 H 0.0 **** 0.06
18906 C 15.918207532183487 100.46369431231878 85.78585252881663 C 0.0 **** -0.24
18907 H 15.342105245248888 100.5604522475877 86.70695270589553 H 0.0 **** 0.06
18908 H 16.256931973800732 101.44884796951811 85.46484407762009 H 0.0 **** 0.06
18909 H 15.291949060841148 100.02368933635057 85.01033380654161 H 0.0 **** 0.06
18910 H 16.78184030920366 99.82269458170862 85.96476926486449 H 0.0 **** 0.06
18911 C 34.76387502394692 98.64804791741503 47.665686111741664 C 0.0 **** -0.24
18912 H 35.498400882586466 98.07656213326757 48.23507286720857 H 0.0 **** 0.06
18913 H 34.87647692018042 98.42826717961793 46.604071951810454 H 0.0 **** 0.06
18914 H 34.92174003382502 99.71283350708893 47.83579974872984 H 0.0 **** 0.06
18915 H 33.7601347527561 98.37252454692111 47.98935374024707 H 0.0 **** 0.06
18916 C 43.79383437045383 89.1392097003509 65.68619491064098 C 0.0 **** -0.24
18917 H 43.397465317596854 89.5103942209519 66.63175350975942 H 0.0 **** 0.06
18918 H 44.19711451061143 88.13679020294418 65.83033608521004 H 0.0 **** 0.06
18919 H 44.58537912633549 89.80293121808054 65.33826957796973 H 0.0 **** 0.06
18920 H 42.99469466699955 89.1069405273573 64.9456391573444 H 0.0 **** 0.06
18921 C 66.561205566524 60.683377964486105 100.9785413275481 C 0.0 **** -0.24
18922 H 65.72073146785283 60.07856570107206 101.3192961028175 H 0.0 **** 0.06
18923 H 67.393542431811 60.031396640364356 100.71443896539188 H 0.0 **** 0.06
18924 H 66.86674622841764 61.36023189689406 101.77578971447835 H 0.0 **** 0.06
18925 H 66.26096767082237 61.262430850634665 100.10506472913883 H 0.0 **** 0.06
18926 C 14.62681551407536 59.06935513646425 41.967242764868786 C 0.0 **** -0.24
18927 H 15.47387489589255 58.38415980999167 41.99314901155782 H 0.0 **** 0.06
18928 H 14.98521014036055 60.09378440250174 42.067842744463064 H 0.0 **** 0.06
18929 H 13.947750716825539 58.83911394744979 42.78830146900657 H 0.0 **** 0.06
18930 H 14.100120863488797 58.960129404387544 41.01875453444194 H 0.0 **** 0.06
18931 C 103.23055649638988 6.604312933269782 10.28044033976272 C 0.0 **** -0.24
18932 H 102.50100099648074 6.5270276071154285 9.473557319952675 H 0.0 **** 0.06
18933 H 103.64855931253854 7.610761644972115 10.296029281267352 H 0.0 **** 0.06
18934 H 104.02950577086648 5.880868317528524 10.11720631207416 H 0.0 **** 0.06
18935 H 102.74284014366839 6.397927481278103 11.232633145462415 H 0.0 **** 0.06
18936 C 90.26946343326068 35.85518997694507 24.520149703532883 C 0.0 **** -0.24
18937 H 89.42463820085743 36.16090058853953 25.138239342611755 H 0.0 **** 0.06
18938 H 91.16522557395598 35.789982483915395 25.138290946320748 H 0.0 **** 0.06
18939 H 90.4245844054588 36.59006911442685 23.729949380181086 H 0.0 **** 0.06
18940 H 90.06187146044147 34.88242577939769 24.076066725010342 H 0.0 **** 0.06
18941 C 41.386625463867134 21.16278278626544 28.168833182130413 C 0.0 **** -0.24
18942 H 41.25114814941331 20.10062297604256 27.96332439287289 H 0.0 **** 0.06
18943 H 41.0152429975105 21.38923294581059 29.16831393845007 H 0.0 **** 0.06
18944 H 40.83255010999952 21.747662815377254 27.43465047747094 H 0.0 **** 0.06
18945 H 42.445213784535525 21.411405564334302 28.10825466074317 H 0.0 **** 0.06
18946 C 44.41304140235485 58.559493943459586 36.81606619959453 C 0.0 **** -0.24
18947 H 44.046357682376 57.536245763164914 36.89280315211138 H 0.0 **** 0.06
18948 H 44.962536505384236 58.67958405227836 35.88173705134915 H 0.0 **** 0.06
18949 H 45.0733054313074 58.77288068395001 37.65655051775034 H 0.0 **** 0.06
18950 H 43.56921234620225 59.249767501929625 36.83359815826026 H 0.0 **** 0.06
18951 C 98.38999441583996 85.26124411881693 70.59753526781407 C 0.0 **** -0.24
18952 H 98.93304185024047 85.01369924230153 71.50918013336684 H 0.0 **** 0.06
18953 H 98.08734661148881 86.30751500275858 70.62781533034132 H 0.0 **** 0.06
18954 H 97.50536622379886 84.62905736452092 70.51970680540998 H 0.0 **** 0.06
18955 H 99.03408757154739 85.09302876624349 69.73385416458953 H 0.0 **** 0.06
18956 C 39.87087752581368 88.83397449688792 21.36721090683166 C 0.0 **** -0.24
18957 H 40.5207601459461 88.92981643050666 20.496921678577834 H 0.0 **** 0.06
18958 H 39.361172623681114 87.87085027545473 21.335194422847877 H 0.0 **** 0.06
18959 H 39.133233939390266 89.63595480186675 21.358851633964363 H 0.0 **** 0.06
18960 H 40.46878793608283 88.89964058763294 22.275494684612738 H 0.0 **** 0.06
18961 C 19.771904432758642 30.08883715028272 70.56065084746689 C 0.0 **** -0.24
18962 H 19.959800956906687 29.074273717104496 70.20716900841018 H 0.0 **** 0.06
18963 H 20.113286004833363 30.18288142775932 71.5921210383504 H 0.0 **** 0.06
18964 H 18.704287449888756 30.299025764758987 70.50866013942806 H 0.0 **** 0.06
18965 H 20.313130083973434 30.79762405919275 69.9328408616201 H 0.0 **** 0.06
18966 C 14.629217369732885 51.00030826406093 100.33045235920324 C 0.0 **** -0.24
18967 H 15.30090574830345 51.46223972247149 99.60727367641078 H 0.0 **** 0.06
18968 H 14.385913796644289 49.988381295500076 100.00413095212843 H 0.0 **** 0.06
18969 H 13.714623442994636 51.58833829797665 100.40452663276372 H 0.0 **** 0.06
18970 H 15.11642648091265 50.960344491367024 101.30535063182103 H 0.0 **** 0.06
18971 C 43.91238565366284 73.39958403424725 14.127367750602929 C 0.0 **** -0.24
18972 H 44.55337137173246 73.57191758537903 14.992601191818324 H 0.0 **** 0.06
18973 H 43.15410911473914 72.6574903347036 14.379705010378188 H 0.0 **** 0.06
18974 H 44.514931124840814 73.03645551755167 13.295410439784717 H 0.0 **** 0.06
18975 H 43.426926407742144 74.33328657228284 13.84526099541361 H 0.0 **** 0.06
18976 C 56.78008883108376 63.7578014009315 13.507616695907696 C 0.0 **** -0.24
18977 H 57.69000355323456 64.02998676952808 14.041398156806757 H 0.0 **** 0.06
18978 H 56.947636027614834 63.852035960021055 12.433847037943075 H 0.0 **** 0.06
18979 H 55.96882841849933 64.42154158223985 13.808985215581949 H 0.0 **** 0.06
18980 H 56.514037531947736 62.72792309137094 13.744858643138258 H 0.0 **** 0.06
18981 C 0.42060736174345514 50.168001116693546 33.858093410000606 C 0.0 **** -0.24
18982 H -0.027227598479067083 51.115575445663836 33.55782659837915 H 0.0 **** 0.06
18983 H 1.097615148061637 50.33531334379046 34.695380352920495 H 0.0 **** 0.06
18984 H 0.974969096242063 49.74665447537268 33.02027398404809 H 0.0 **** 0.06
18985 H -0.365340824070965 49.474107776713765 34.158669446413484 H 0.0 **** 0.06
18986 C 9.197107748792419 52.58885292698236 0.7775760267419667 C 0.0 **** -0.24
18987 H 9.501784055947013 51.84469860753146 1.5125100428696792 H 0.0 **** 0.06
18988 H 8.788747982398803 53.45933899308241 1.2903378246369526 H 0.0 **** 0.06
18989 H 8.436678214820091 52.162469885104706 0.12318483989385243 H 0.0 **** 0.06
18990 H 10.060725352325704 52.88763279059931 0.18389969515296123 H 0.0 **** 0.06
18991 C 103.13153950189027 74.2946647047429 66.69774506061609 C 0.0 **** -0.24
18992 H 104.16644928890162 74.13401904737302 66.99876841319474 H 0.0 **** 0.06
18993 H 103.08185805530206 74.41139248714828 65.61536447033006 H 0.0 **** 0.06
18994 H 102.74824988290794 75.19550564342182 67.17852790613549 H 0.0 **** 0.06
18995 H 102.52909603999572 73.43730727323796 66.99956712068607 H 0.0 **** 0.06
18996 C 80.82433773022044 66.11921548744277 75.49489928670155 C 0.0 **** -0.24
18997 H 79.8488031338012 65.91234254491266 75.93496885829143 H 0.0 **** 0.06
18998 H 81.25104389307907 67.00953890439425 75.9582463808178 H 0.0 **** 0.06
18999 H 80.71213610651381 66.28522980276779 74.42353873835341 H 0.0 **** 0.06
19000 H 81.48661545453638 65.26910181331601 75.6629928003698 H 0.0 **** 0.06
19001 C 105.82162245797883 58.20756111184801 88.8781936084888 C 0.0 **** -0.24
19002 H 104.81465379274115 57.80313764015909 88.76976750264322 H 0.0 **** 0.06
19003 H 106.5043605718845 57.661616196316004 88.22703601474927 H 0.0 **** 0.06
19004 H 106.14494570181762 58.10318850140442 89.9140308757353 H 0.0 **** 0.06
19005 H 105.82010707304349 59.26219564804529 88.60228582644595 H 0.0 **** 0.06
19006 C 48.21876956161128 28.74281160326393 23.783819255495416 C 0.0 **** -0.24
19007 H 48.08247062442831 29.770069738022045 23.446772261335184 H 0.0 **** 0.06
19008 H 48.875618580095136 28.730328134887657 24.654397798573797 H 0.0 **** 0.06
19009 H 48.66505333862142 28.153782673308058 22.982671895921612 H 0.0 **** 0.06
19010 H 47.25147317644354 28.317423529814988 24.05224636315313 H 0.0 **** 0.06
19011 C 67.40650321189224 49.89043359531453 10.128058767938551 C 0.0 **** -0.24
19012 H 67.82579514438933 48.891908183770795 10.252287099093607 H 0.0 **** 0.06
19013 H 66.37586135123786 49.89833834245036 10.484261406942469 H 0.0 **** 0.06
19014 H 67.42837850052496 50.16490964867913 9.072427736284503 H 0.0 **** 0.06
19015 H 67.99489927335412 50.6053458238207 10.701437224924774 H 0.0 **** 0.06
19016 C 42.86759990432273 85.49299521331628 19.60354105673835 C 0.0 **** -0.24
19017 H 42.067203997328704 84.97696936809251 19.073272154417623 H 0.0 **** 0.06
19018 H 42.691708224779404 86.56846800369436 19.568586463760028 H 0.0 **** 0.06
19019 H 43.82299628993064 85.26413884045314 19.131227702785992 H 0.0 **** 0.06
19020 H 42.88781584992404 85.16096678340011 20.642293151885724 H 0.0 **** 0.06
19021 C 3.028945895588876 75.29526384494676 91.28847769616215 C 0.0 **** -0.24
19022 H 2.4668875466244344 75.0352491477949 90.39129534054462 H 0.0 **** 0.06
19023 H 3.698889353671291 74.47539347707499 91.54716809589206 H 0.0 **** 0.06
19024 H 2.3368510090122783 75.47309255527506 92.11103405122498 H 0.0 **** 0.06
19025 H 3.6120639498890625 76.19717004395426 91.10274421918496 H 0.0 **** 0.06
19026 C 79.67726521167194 20.692235538314392 77.69206903504957 C 0.0 **** -0.24
19027 H 80.1503331018599 21.659916002999125 77.86084318056425 H 0.0 **** 0.06
19028 H 78.61953198142876 20.839058984481 77.47521738507982 H 0.0 **** 0.06
19029 H 79.78338750920639 20.075753772559906 78.58476421629672 H 0.0 **** 0.06
19030 H 80.15717046789933 20.195915662801653 76.84856804640629 H 0.0 **** 0.06
19031 C 36.70646354387799 74.20936472201413 78.76365862213117 C 0.0 **** -0.24
19032 H 37.050012727115075 74.39924271946967 79.78001615542553 H 0.0 **** 0.06
19033 H 36.33316120601995 73.18704895194858 78.6923683453341 H 0.0 **** 0.06
19034 H 37.53632601496918 74.34264993782884 78.06973952600981 H 0.0 **** 0.06
19035 H 35.907191719427374 74.90708469643087 78.51400932748095 H 0.0 **** 0.06
19036 C 4.251000607888923 109.28990985341258 60.4775090036934 C 0.0 **** -0.24
19037 H 3.986829557293108 109.78853425944979 59.545276891222045 H 0.0 **** 0.06
19038 H 3.6704352458989327 109.71768207223263 61.29582634368114 H 0.0 **** 0.06
19039 H 5.314553191020282 109.42760752560037 60.675060774262704 H 0.0 **** 0.06
19040 H 4.03218879074392 108.22494866340745 60.39498940933538 H 0.0 **** 0.06
19041 C 20.061132338648726 27.520821893048208 83.41689455864753 C 0.0 **** -0.24
19042 H 20.730120073644656 28.323310492794576 83.72554609911202 H 0.0 **** 0.06
19043 H 19.88078895385233 26.85441421403229 84.26076747267092 H 0.0 **** 0.06
19044 H 20.519416389403432 26.95931035778443 82.60230204799115 H 0.0 **** 0.06
19045 H 19.115746303737744 27.944853749608143 83.0797780084259 H 0.0 **** 0.06
19046 C 33.483037893918436 24.09710844785792 85.3394704418869 C 0.0 **** -0.24
19047 H 33.888847570561836 23.84800479201331 86.31955626430488 H 0.0 **** 0.06
19048 H 34.08930586142725 23.627394792845788 84.5653247262627 H 0.0 **** 0.06
19049 H 33.49659242158833 25.179471054078483 85.20557145274182 H 0.0 **** 0.06
19050 H 32.457578032987556 23.7359111448876 85.26810577158824 H 0.0 **** 0.06
19051 C 65.34313477263152 4.960451414291583 38.908502240675034 C 0.0 **** -0.24
19052 H 64.91726608929167 4.427767245048642 39.758893233241615 H 0.0 **** 0.06
19053 H 66.08924536667976 4.330621690385442 38.42363637221919 H 0.0 **** 0.06
19054 H 65.81323695727343 5.880772507598351 39.254800378062704 H 0.0 **** 0.06
19055 H 64.55282013525897 5.200428015147224 38.19697542124154 H 0.0 **** 0.06
19056 C 29.994613753111935 42.56527637491479 49.65858709010377 C 0.0 **** -0.24
19057 H 30.610891295496003 43.40185197988383 49.98661542699334 H 0.0 **** 0.06
19058 H 28.953430613173907 42.756811097902876 49.91930253604227 H 0.0 **** 0.06
19059 H 30.330492200734966 41.65139836598703 50.15010324087739 H 0.0 **** 0.06
19060 H 30.084579396634012 42.45003459245385 48.57801041243104 H 0.0 **** 0.06
19061 C 1.4501237331350456 23.515688558723575 6.168029097090351 C 0.0 **** -0.24
19062 H 2.139515907319181 24.299318908556543 6.483335823610336 H 0.0 **** 0.06
19063 H 1.0729460744650767 22.98985534722923 7.045063206278099 H 0.0 **** 0.06
19064 H 1.9729720413913832 22.812907561009695 5.520280816947466 H 0.0 **** 0.06
19065 H 0.6175220866741888 23.96204170215395 5.624874677354473 H 0.0 **** 0.06
19066 C 38.951622420929596 45.754991420295084 101.74768715153857 C 0.0 **** -0.24
19067 H 38.25998515427733 46.5529404700288 102.01564148722701 H 0.0 **** 0.06
19068 H 39.21091072449934 45.83765653500984 100.69203500015132 H 0.0 **** 0.06
19069 H 38.4810512292367 44.7889421359545 101.93221888230676 H 0.0 **** 0.06
19070 H 39.854900637518426 45.83957460393549 102.35123540539058 H 0.0 **** 0.06
19071 C 53.27683463523107 39.727884087421785 68.60228721149417 C 0.0 **** -0.24
19072 H 53.999500863996644 38.91925307401726 68.500681590695 H 0.0 **** 0.06
19073 H 52.618064313113194 39.73841453538947 67.73368535337701 H 0.0 **** 0.06
19074 H 53.803810891223605 40.6806225021806 68.66956300667701 H 0.0 **** 0.06
19075 H 52.685613969479704 39.575567625946064 69.5059189269343 H 0.0 **** 0.06
19076 C 67.6729079538494 86.42170021408407 71.38776053027254 C 0.0 **** -0.24
19077 H 67.665472352309 85.75304199413912 70.52704031990896 H 0.0 **** 0.06
19078 H 67.02390486115667 86.0200457791214 72.1654995938012 H 0.0 **** 0.06
19079 H 67.31384202735524 87.40625322308597 71.08661028290436 H 0.0 **** 0.06
19080 H 68.69023099626418 86.50858269133613 71.7706948728154 H 0.0 **** 0.06
19081 C 78.67627576000262 66.63003744087655 26.061389592364293 C 0.0 **** -0.24
19082 H 79.10763422191837 66.45357587349758 27.046514740927392 H 0.0 **** 0.06
19083 H 77.67883687102898 66.191678778972 26.0173238911471 H 0.0 **** 0.06
19084 H 79.30889177090063 66.17378301163308 25.300022226794226 H 0.0 **** 0.06
19085 H 78.609538007134 67.70406050911208 25.88118125640017 H 0.0 **** 0.06
19086 C 39.37465832601126 72.31448722132438 43.717035979456625 C 0.0 **** -0.24
19087 H 39.85264532386195 71.46586506010601 44.207349450783624 H 0.0 **** 0.06
19088 H 39.564689780356645 72.26768504759579 42.6448130619799 H 0.0 **** 0.06
19089 H 39.78272139595779 73.24203808853741 44.11819965195315 H 0.0 **** 0.06
19090 H 38.30062570196826 72.28128461856414 43.898584516593644 H 0.0 **** 0.06
19091 C 31.171563674494223 106.1795808698923 76.73572957933914 C 0.0 **** -0.24
19092 H 31.273558871240937 105.19907871973251 77.2008670915067 H 0.0 **** 0.06
19093 H 31.943884377237055 106.84602224991225 77.12242341852368 H 0.0 **** 0.06
19094 H 30.18882547494661 106.59016124438661 76.96351384368057 H 0.0 **** 0.06
19095 H 31.283682461953447 106.08248129167049 75.6561340965882 H 0.0 **** 0.06
19096 C 29.04474745200659 3.890789080709917 75.67420138678204 C 0.0 **** -0.24
19097 H 29.997231666214077 3.924695018755358 76.20259382503005 H 0.0 **** 0.06
19098 H 29.17460318596298 3.3721144882595198 74.72363543836533 H 0.0 **** 0.06
19099 H 28.6953181322869 4.905971067082277 75.48949350500962 H 0.0 **** 0.06
19100 H 28.312470537367403 3.3582633073082917 76.28145194212664 H 0.0 **** 0.06
19101 C 53.35821743792968 100.06802735727629 81.3058292977191 C 0.0 **** -0.24
19102 H 53.1282312205235 100.93706395032731 80.69046675826797 H 0.0 **** 0.06
19103 H 53.320780756771796 100.34851800663168 82.35873381059648 H 0.0 **** 0.06
19104 H 54.35606539469018 99.70333666461252 81.06159056665703 H 0.0 **** 0.06
19105 H 52.626557337039344 99.28319191363585 81.11321509945228 H 0.0 **** 0.06
19106 C 83.73058706000629 21.53839732386635 84.74517339597648 C 0.0 **** -0.24
19107 H 82.94162530245632 21.930425902699284 85.38873338058224 H 0.0 **** 0.06
19108 H 84.57441341979927 21.220592734793144 85.35863878211183 H 0.0 **** 0.06
19109 H 84.05428205200027 22.316900816060098 84.05441566112412 H 0.0 **** 0.06
19110 H 83.34928577261513 20.687582317601198 84.1817033721303 H 0.0 **** 0.06
19111 C 29.0014471420522 103.51137223296425 22.81969621489605 C 0.0 **** -0.24
19112 H 29.565097817640265 104.43801319498547 22.92538822502614 H 0.0 **** 0.06
19113 H 28.08756914820043 103.70488740273865 22.256583106607494 H 0.0 **** 0.06
19114 H 28.74516137403674 103.128505190509 23.807174205420615 H 0.0 **** 0.06
19115 H 29.606844848698643 102.77599351395781 22.28996596772098 H 0.0 **** 0.06
19116 C 15.618999711562566 26.946209231101314 4.072404213672655 C 0.0 **** -0.24
19117 H 15.69649164188462 27.573690588651473 3.18401320407429 H 0.0 **** 0.06
19118 H 14.575370091643364 26.67392169910311 4.233863738263608 H 0.0 **** 0.06
19119 H 15.989290132325195 27.49639281454266 4.937485957263675 H 0.0 **** 0.06
19120 H 16.213484652363277 26.043404051090548 3.9335271738956976 H 0.0 **** 0.06
19121 C 7.182816590441234 73.93885533449699 104.41741548188742 C 0.0 **** -0.24
19122 H 7.27453640259948 73.01100468352706 104.98231375042485 H 0.0 **** 0.06
19123 H 6.238715001868314 74.42443021132829 104.66599879716111 H 0.0 **** 0.06
19124 H 7.208147680528398 73.7186337399703 103.34980449376692 H 0.0 **** 0.06
19125 H 8.009867276768688 74.6013527031624 104.67154488619653 H 0.0 **** 0.06
19126 C 51.302848418214346 97.44295873153047 36.37997394524147 C 0.0 **** -0.24
19127 H 51.39292407642681 98.47286797693508 36.03562866517331 H 0.0 **** 0.06
19128 H 52.08054885874808 97.23688327088348 37.11581180463257 H 0.0 **** 0.06
19129 H 51.41406621857525 96.7649848971493 35.533108824549885 H 0.0 **** 0.06
19130 H 50.32385451910726 97.29709878115415 36.83534648660992 H 0.0 **** 0.06
19131 C 26.65098626528294 66.77881794985538 93.40242407865708 C 0.0 **** -0.24
19132 H 26.650586789677448 66.38053331189181 92.3868918628661 H 0.0 **** 0.06
19133 H 26.001176784107997 66.16938797303115 94.03113639643666 H 0.0 **** 0.06
19134 H 26.28603470801491 67.80484684443067 93.38968266025014 H 0.0 **** 0.06
19135 H 27.66559635228282 66.75776231704256 93.79949886983229 H 0.0 **** 0.06
19136 C 45.937492260226975 102.76514292746796 95.27936811199564 C 0.0 **** -0.24
19137 H 46.89975993386997 102.39885304300765 95.6348409561754 H 0.0 **** 0.06
19138 H 46.02587927803853 103.06159825946122 94.23327467970373 H 0.0 **** 0.06
19139 H 45.633214830453795 103.62556593992403 95.87641831726623 H 0.0 **** 0.06
19140 H 45.19120151032114 101.97661433879577 95.37207262562731 H 0.0 **** 0.06
19141 C 25.785492590482335 74.31410698871639 17.224662692960607 C 0.0 **** -0.24
19142 H 25.952148438667635 74.45889243360233 16.157092361668845 H 0.0 **** 0.06
19143 H 26.123773222318192 75.19710187529128 17.767425687561627 H 0.0 **** 0.06
19144 H 26.34453898743085 73.44216942096043 17.56415406460681 H 0.0 **** 0.06
19145 H 24.721789629204693 74.15881003620959 17.40870435396394 H 0.0 **** 0.06
19146 C 103.32488360496131 5.195701625628203 86.66613527127714 C 0.0 **** -0.24
19147 H 103.18396928319086 4.119846079098494 86.7714842373698 H 0.0 **** 0.06
19148 H 102.3905381035892 5.708525463211274 86.89728383838198 H 0.0 **** 0.06
19149 H 103.62087443185442 5.424170207896694 85.64175985834243 H 0.0 **** 0.06
19150 H 104.10300752597624 5.5289738024535495 87.35227459082668 H 0.0 **** 0.06
19151 C 57.726698212679594 66.70672366657465 73.37481312882673 C 0.0 **** -0.24
19152 H 56.90046513916363 66.91822491478078 72.69557122977574 H 0.0 **** 0.06
19153 H 57.36128843942535 66.70312607188725 74.40173627344828 H 0.0 **** 0.06
19154 H 58.493214068739206 67.47413961963409 73.26415318985136 H 0.0 **** 0.06
19155 H 58.152407938916184 65.73131944257003 73.13650598684347 H 0.0 **** 0.06
19156 C 40.5400197601237 97.44865079982094 16.18479776067352 C 0.0 **** -0.24
19157 H 40.0478430341999 97.84295368494355 15.295017018122763 H 0.0 **** 0.06
19158 H 41.164426680284066 96.60002502482459 15.908042274722092 H 0.0 **** 0.06
19159 H 39.78553360308885 97.12693545261834 16.90323725670818 H 0.0 **** 0.06
19160 H 41.158991019348065 98.22700931886371 16.631984559996525 H 0.0 **** 0.06
19161 C 47.85116820957871 104.70147678006492 92.44525263112646 C 0.0 **** -0.24
19162 H 47.186625439023715 105.21516539220556 91.75010276170744 H 0.0 **** 0.06
19163 H 48.86395069112275 104.69773946660416 92.0429355436886 H 0.0 **** 0.06
19164 H 47.510339494887255 103.67594431710876 92.58291988351499 H 0.0 **** 0.06
19165 H 47.84242304120361 105.21972783883734 93.4047487589805 H 0.0 **** 0.06
19166 C 68.02800738178863 67.09782082041662 54.566348708798444 C 0.0 **** -0.24
19167 H 67.95141174595346 66.54760543703117 55.50435539878572 H 0.0 **** 0.06
19168 H 69.06589352905576 67.10546219296006 54.23341876906102 H 0.0 **** 0.06
19169 H 67.68714625321027 68.12213401550221 54.719118455140745 H 0.0 **** 0.06
19170 H 67.40652716867214 66.61615589749579 53.81195054200816 H 0.0 **** 0.06
19171 C 25.4256160195921 21.336305822164405 21.22269668500971 C 0.0 **** -0.24
19172 H 26.128062498672364 20.7351230961674 21.800591748212923 H 0.0 **** 0.06
19173 H 25.878596480127015 22.30036752513857 20.991490883481987 H 0.0 **** 0.06
19174 H 24.517043213581047 21.490514616725136 21.804345604099865 H 0.0 **** 0.06
19175 H 25.1804451012527 20.817099285767313 20.296741435055253 H 0.0 **** 0.06
19176 C 10.248996662710638 31.688930475124394 20.977772797095717 C 0.0 **** -0.24
19177 H 9.695560779485735 32.36049062150849 20.321379557815124 H 0.0 **** 0.06
19178 H 10.367202115409842 32.15397902484251 21.957186287893517 H 0.0 **** 0.06
19179 H 11.23164472329491 31.490936079617214 20.54883872674964 H 0.0 **** 0.06
19180 H 9.702815224540789 30.751926206048978 21.082315496504826 H 0.0 **** 0.06
19181 C 29.888315247396335 96.46454662867365 24.605079206370903 C 0.0 **** -0.24
19182 H 29.006712534957664 96.72178636820615 25.192330236535327 H 0.0 **** 0.06
19183 H 30.5844867251596 97.30313049092774 24.60904876028262 H 0.0 **** 0.06
19184 H 29.58913652969614 96.24447638668403 23.580160873117123 H 0.0 **** 0.06
19185 H 30.370783855161484 95.58878756276951 25.038132832643072 H 0.0 **** 0.06
19186 C 26.03619109971055 102.343635622205 70.28837993246825 C 0.0 **** -0.24
19187 H 26.88706367262523 101.82376483828585 69.84930412810769 H 0.0 **** 0.06
19188 H 26.282767380017788 102.64809948242495 71.30601412057919 H 0.0 **** 0.06
19189 H 25.173749943758366 101.67676218006227 70.30712822000933 H 0.0 **** 0.06
19190 H 25.80157891531428 103.22456965524393 69.69124953084903 H 0.0 **** 0.06
19191 C 97.52255907271916 102.31469950480397 107.53591019247797 C 0.0 **** -0.24
19192 H 98.0870418243004 101.64591555130576 108.18445513836917 H 0.0 **** 0.06
19193 H 98.07506099851133 102.47305929969968 106.60863175264332 H 0.0 **** 0.06
19194 H 97.37513639120405 103.27004024649341 108.03859493778066 H 0.0 **** 0.06
19195 H 96.55382326656076 101.87006610356707 107.30990042169029 H 0.0 **** 0.06
19196 C 105.23488773590384 84.70388493213215 34.34229883088565 C 0.0 **** -0.24
19197 H 104.71086986793188 85.12204983835159 33.483653562447444 H 0.0 **** 0.06
19198 H 104.77021010009639 83.75995060136654 34.628274526842404 H 0.0 **** 0.06
19199 H 105.1812075467567 85.40250522061172 35.17722728109112 H 0.0 **** 0.06
19200 H 106.27950143891343 84.53053189689183 34.08089988059447 H 0.0 **** 0.06
19201 C 53.18157795336875 95.82866724728501 23.471217491531775 C 0.0 **** -0.24
19202 H 53.27950845917034 96.63578508354428 22.74559998015853 H 0.0 **** 0.06
19203 H 53.87284380084191 95.02433640598679 23.216101995323683 H 0.0 **** 0.06
19204 H 52.15990495018498 95.44893807007892 23.4566427514697 H 0.0 **** 0.06
19205 H 53.41500512260066 96.20556060893895 24.46683213702542 H 0.0 **** 0.06
19206 C 26.357212424011095 63.1401223746301 37.53036188542353 C 0.0 **** -0.24
19207 H 26.88979509685774 63.9509904535956 38.027316657543054 H 0.0 **** 0.06
19208 H 26.629434424234546 62.19061229866342 37.99091934118843 H 0.0 **** 0.06
19209 H 26.625849372648275 63.12251968733822 36.474595022349945 H 0.0 **** 0.06
19210 H 25.28276169269634 63.297744820252625 37.62832731188149 H 0.0 **** 0.06
19211 C 31.102424992584304 4.792546844893138 64.09806920621642 C 0.0 **** -0.24
19212 H 31.600988656472225 4.022738711726902 63.508819584313784 H 0.0 **** 0.06
19213 H 31.268125502944827 4.601960559553106 65.15912984775466 H 0.0 **** 0.06
19214 H 30.033114488423394 4.774665881332453 63.887423277404054 H 0.0 **** 0.06
19215 H 31.508366410422298 5.770492185192893 63.83660420413685 H 0.0 **** 0.06
19216 C 25.955542944137278 9.089871002201903 91.16828742169673 C 0.0 **** -0.24
19217 H 26.913045028446817 9.397036618754157 90.74632475122951 H 0.0 **** 0.06
19218 H 25.72073316577368 8.07811914320331 90.83632961880448 H 0.0 **** 0.06
19219 H 25.175894640173595 9.773082313089049 90.83292022046476 H 0.0 **** 0.06
19220 H 26.014806984934182 9.112275577466448 92.25630496788563 H 0.0 **** 0.06
19221 C 106.21080720071237 99.10808626241229 103.29633904239338 C 0.0 **** -0.24
19222 H 106.49198024410875 98.55341313929608 104.19166962334438 H 0.0 **** 0.06
19223 H 106.63790494269654 100.10962895326628 103.34071370835647 H 0.0 **** 0.06
19224 H 105.1237045456462 99.17788690806265 103.23944283024193 H 0.0 **** 0.06
19225 H 106.58762897183321 98.59032803593513 102.41441095690251 H 0.0 **** 0.06
19226 C 81.86202666341305 74.04572293885761 6.110059568429424 C 0.0 **** -0.24
19227 H 81.28881090287811 73.86328889235992 7.018690331878778 H 0.0 **** 0.06
19228 H 82.66351624752409 74.75383617380254 6.3228941046728 H 0.0 **** 0.06
19229 H 81.20724458593912 74.45788330312106 5.3424883100844465 H 0.0 **** 0.06
19230 H 82.2904688290017 73.10805235716902 5.756646839101551 H 0.0 **** 0.06
19231 C 15.849407160326692 77.49101583633012 35.103555237012245 C 0.0 **** -0.24
19232 H 16.445089110545695 76.64899248254795 34.75015870175582 H 0.0 **** 0.06
19233 H 14.92441912019008 77.54719384086903 34.52863035940527 H 0.0 **** 0.06
19234 H 16.413793404850523 78.41516655630417 34.973504928656155 H 0.0 **** 0.06
19235 H 15.614669972525249 77.35309405928123 36.15822074401967 H 0.0 **** 0.06
19236 C 21.66649569925613 5.448056315370222 100.22558080428632 C 0.0 **** -0.24
19237 H 21.534454278859585 4.366730401423519 100.26175697805718 H 0.0 **** 0.06
19238 H 22.72343335731071 5.6890182101484985 100.34113843664224 H 0.0 **** 0.06
19239 H 21.0987182894427 5.910047095304909 101.03387640689144 H 0.0 **** 0.06
19240 H 21.309309388896395 5.826889973438616 99.26834136229186 H 0.0 **** 0.06
19241 C 55.04146801474434 13.598316201101767 50.9304854204166 C 0.0 **** -0.24
19242 H 55.94201666062307 13.006740967787678 50.76447851572365 H 0.0 **** 0.06
19243 H 54.16821589074499 12.944885046975998 50.909439014554835 H 0.0 **** 0.06
19244 H 54.95191148349301 14.350591104288952 50.147790461093365 H 0.0 **** 0.06
19245 H 55.10408138177877 14.08916544169412 51.90138806492408 H 0.0 **** 0.06
19246 C 8.12660830987349 53.37956413363301 49.12192159281432 C 0.0 **** -0.24
19247 H 8.14344082368757 53.209410944636375 50.197816510426435 H 0.0 **** 0.06
19248 H 7.683067349102146 52.51644380318086 48.62494258470889 H 0.0 **** 0.06
19249 H 9.145652482285556 53.52301766879924 48.76140737873283 H 0.0 **** 0.06
19250 H 7.535610221487843 54.268946639466435 48.903659371849585 H 0.0 **** 0.06
19251 C 100.66947972743543 48.23321894056431 0.7594401576484984 C 0.0 **** -0.24
19252 H 101.1922003681851 48.242219740196084 1.7162758538784715 H 0.0 **** 0.06
19253 H 100.75928125899307 47.245285355240675 0.30611534092881243 H 0.0 **** 0.06
19254 H 101.11124214448685 48.97786197447094 0.09811645030427485 H 0.0 **** 0.06
19255 H 99.61685528301604 48.46649392214509 0.9183550035547228 H 0.0 **** 0.06
19256 C 29.21861869598021 111.44601598407161 87.70995194480705 C 0.0 **** -0.24
19257 H 28.539834372471773 112.29351171788667 87.80708706585281 H 0.0 **** 0.06
19258 H 30.133535499574435 111.76855179534033 87.21388014470284 H 0.0 **** 0.06
19259 H 28.740863668871896 110.66438577826574 87.11988948746594 H 0.0 **** 0.06
19260 H 29.458350794747304 111.05883726946863 88.69991634523274 H 0.0 **** 0.06
19261 C 13.92212772800605 27.17913785173019 12.749366594574585 C 0.0 **** -0.24
19262 H 13.983172238836843 26.223801023903917 12.22948062447712 H 0.0 **** 0.06
19263 H 14.635075217237421 27.19162474170909 13.574549251408282 H 0.0 **** 0.06
19264 H 12.913168446049099 27.317678271452962 13.138565953846093 H 0.0 **** 0.06
19265 H 14.15709384108121 27.985650320783435 12.054486765478202 H 0.0 **** 0.06
19266 C 80.7510992495713 95.14719559967435 21.392346073937972 C 0.0 **** -0.24
19267 H 80.07365906578892 95.11943641595741 20.538743339689404 H 0.0 **** 0.06
19268 H 80.77405803287206 96.15604644850032 21.80517204759471 H 0.0 **** 0.06
19269 H 81.75289341906074 94.86291753693732 21.06962817817393 H 0.0 **** 0.06
19270 H 80.40407334843843 94.44981217249972 22.15423039595362 H 0.0 **** 0.06
19271 C 74.9754902600342 58.667467776281775 32.18143117648478 C 0.0 **** -0.24
19272 H 75.37016582175124 58.68860318604903 33.196654214322336 H 0.0 **** 0.06
19273 H 75.09620135303126 59.64996393665533 31.724340861310537 H 0.0 **** 0.06
19274 H 73.91720003020549 58.40740114002684 32.20827399594452 H 0.0 **** 0.06
19275 H 75.51700256056054 57.92492099240568 31.596622654561997 H 0.0 **** 0.06
19276 C 73.49126354592036 68.21446394377864 20.552239302464756 C 0.0 **** -0.24
19277 H 73.3283258714587 69.28983279616 20.62665407296018 H 0.0 **** 0.06
19278 H 73.21525972648865 67.73934101517892 21.493994857251707 H 0.0 **** 0.06
19279 H 74.5428425626506 68.02070345937975 20.341171007545782 H 0.0 **** 0.06
19280 H 72.87870381577576 67.80897411466358 19.747084686788085 H 0.0 **** 0.06
19281 C 6.4023738135201995 95.91754222743475 14.473745857311656 C 0.0 **** -0.24
19282 H 7.419284700889563 96.07820388283898 14.83362992892117 H 0.0 **** 0.06
19283 H 5.753116007569275 96.70470200203076 14.859855040593601 H 0.0 **** 0.06
19284 H 6.043622371121728 94.94822272943583 14.819154997361693 H 0.0 **** 0.06
19285 H 6.394947714065154 95.94127628358797 13.38453978216728 H 0.0 **** 0.06
19286 C 15.209017944480394 99.10629742065771 46.03012191108962 C 0.0 **** -0.24
19287 H 15.82093727394249 99.39261975726137 46.88460863231978 H 0.0 **** 0.06
19288 H 15.348865191095115 99.82788281778099 45.22441866199796 H 0.0 **** 0.06
19289 H 14.158938996664332 99.08942686305758 46.325125442751926 H 0.0 **** 0.06
19290 H 15.505615385780715 98.1153448607678 45.68610681990913 H 0.0 **** 0.06
19291 C 84.41884571110097 106.27583166557858 78.06411007724773 C 0.0 **** -0.24
19292 H 84.38031324237448 107.18529031946771 77.46425875107403 H 0.0 **** 0.06
19293 H 85.40600226332987 105.82131237290531 77.9717811647584 H 0.0 **** 0.06
19294 H 83.66158908542388 105.57620930844234 77.7123626298553 H 0.0 **** 0.06
19295 H 84.22892728257668 106.52217021252056 79.108437448827 H 0.0 **** 0.06
19296 C 7.978927393903717 39.192030331827155 76.56876076636979 C 0.0 **** -0.24
19297 H 7.041657850523791 39.69568758970824 76.80226339588381 H 0.0 **** 0.06
19298 H 8.769606107978632 39.93286398867588 76.4514533295253 H 0.0 **** 0.06
19299 H 7.8679021135257585 38.6295098264876 75.64137708242265 H 0.0 **** 0.06
19300 H 8.237180172792904 38.50970792177874 77.37837734224604 H 0.0 **** 0.06
19301 C 94.59924422835425 7.426987443756786 40.94526661136942 C 0.0 **** -0.24
19302 H 95.08248968294163 6.45862775158065 41.07187103457697 H 0.0 **** 0.06
19303 H 95.1804154324119 8.03449567115888 40.25084942539746 H 0.0 **** 0.06
19304 H 94.54114577782434 7.9321892302781976 41.90893308204646 H 0.0 **** 0.06
19305 H 93.59402209295754 7.282149143586082 40.54816363494072 H 0.0 **** 0.06
19306 C 87.55333161009591 82.01841126746032 70.1009588672745 C 0.0 **** -0.24
19307 H 87.4443540117027 81.9243668582146 69.02119554267651 H 0.0 **** 0.06
19308 H 86.8805466793867 81.3196160325528 70.59675617542138 H 0.0 **** 0.06
19309 H 87.30840872649463 83.03704180809007 70.4037262009451 H 0.0 **** 0.06
19310 H 88.58266075778977 81.79396050695951 70.38262145886213 H 0.0 **** 0.06
19311 C 33.08191483221799 19.309337828447383 15.281958363760452 C 0.0 **** -0.24
19312 H 33.47914808244914 18.372669856286564 15.672555627102724 H 0.0 **** 0.06
19313 H 33.65119185825023 19.6054021346134 14.400784153181732 H 0.0 **** 0.06
19314 H 33.16384931795514 20.0838172927742 16.045037474904603 H 0.0 **** 0.06
19315 H 32.03483531243177 19.17503705871465 15.01227685230252 H 0.0 **** 0.06
19316 C 105.92161202696244 84.87008345284991 111.13989371166258 C 0.0 **** -0.24
19317 H 105.632836818528 84.97626829349352 110.09501862177564 H 0.0 **** 0.06
19318 H 106.47682444389714 85.7540787609957 111.45484117112255 H 0.0 **** 0.06
19319 H 106.54833933969564 83.98598272064046 111.25617849767895 H 0.0 **** 0.06
19320 H 105.02786605989095 84.76482032548662 111.75453440681326 H 0.0 **** 0.06
19321 C 45.83889804919377 36.5191102851372 57.110522463475256 C 0.0 **** -0.24
19322 H 46.59512723201496 35.74241337614943 56.991263099718736 H 0.0 **** 0.06
19323 H 46.16332398978565 37.225520768712215 57.87480542425603 H 0.0 **** 0.06
19324 H 44.89553866758098 36.064005752200245 57.411923058759555 H 0.0 **** 0.06
19325 H 45.703656471571776 37.043441148006735 56.1649087941112 H 0.0 **** 0.06
19326 C 59.10402508717379 8.653583031783842 100.0477234371362 C 0.0 **** -0.24
19327 H 58.36830837024258 9.375378492872454 99.69245925948968 H 0.0 **** 0.06
19328 H 59.95922281740611 8.644281618479143 99.3712703576793 H 0.0 **** 0.06
19329 H 58.653891952431344 7.6617658242795965 100.07861244315171 H 0.0 **** 0.06
19330 H 59.43487573671927 8.93391207839199 101.0468344214849 H 0.0 **** 0.06
19331 C 8.543307109071378 16.9138985622628 56.01786780122424 C 0.0 **** -0.24
19332 H 7.969438841759171 16.26771875975038 56.68217064496912 H 0.0 **** 0.06
19333 H 7.975483976452978 17.09277320776124 55.1045419183971 H 0.0 **** 0.06
19334 H 9.489100241072933 16.430941618078407 55.7707233621563 H 0.0 **** 0.06
19335 H 8.739560785821851 17.863190394535962 56.516668284610006 H 0.0 **** 0.06
19336 C 85.93779430263717 80.73413106920907 89.19933976748007 C 0.0 **** -0.24
19337 H 86.10608508560838 80.05751508775893 90.03769856017325 H 0.0 **** 0.06
19338 H 86.06015894497986 80.19016578158826 88.26246887029131 H 0.0 **** 0.06
19339 H 86.65697561386048 81.55141140203483 89.24175939188913 H 0.0 **** 0.06
19340 H 84.92610632693933 81.13728339526193 89.25702948547084 H 0.0 **** 0.06
19341 C 20.71033234862574 18.42426549960827 29.451250879006835 C 0.0 **** -0.24
19342 H 21.797624570526978 18.504613219263405 29.476416836053943 H 0.0 **** 0.06
19343 H 20.395328667059175 17.57134198223772 30.05254161779152 H 0.0 **** 0.06
19344 H 20.380168248460848 18.287193198891167 28.42163967600341 H 0.0 **** 0.06
19345 H 20.27002200084604 19.336587165852457 29.855154871279495 H 0.0 **** 0.06
19346 C 99.6881762514771 15.924676918096143 18.37117164416875 C 0.0 **** -0.24
19347 H 99.10481500595125 16.29284885618165 19.216149495926114 H 0.0 **** 0.06
19348 H 100.13696623390916 16.768260259917515 17.844857861981076 H 0.0 **** 0.06
19349 H 99.0347164395875 15.378181804570598 17.690494183772813 H 0.0 **** 0.06
19350 H 100.47381107603462 15.261480119478026 18.733217663305513 H 0.0 **** 0.06
19351 C 103.68547638790278 27.08310492031478 29.146168911105505 C 0.0 **** -0.24
19352 H 104.18239992596295 27.48457014438941 30.030179173925546 H 0.0 **** 0.06
19353 H 102.78428333191152 27.66210317115093 28.942037714985474 H 0.0 **** 0.06
19354 H 103.41773109129201 26.041889406408245 29.322461369909263 H 0.0 **** 0.06
19355 H 104.35947130949592 27.145561703499027 28.291778843025682 H 0.0 **** 0.06
19356 C 34.79112486056832 53.46684797658531 25.925022288480648 C 0.0 **** -0.24
19357 H 34.47155039972378 54.35232851737891 26.47466651655992 H 0.0 **** 0.06
19358 H 34.721952746603364 53.659344809336574 24.854079892792896 H 0.0 **** 0.06
19359 H 34.14799131407531 52.6266396952023 26.186161438733848 H 0.0 **** 0.06
19360 H 35.82240285997747 53.229522366647245 26.18584525573388 H 0.0 **** 0.06
19361 C 91.03870580169178 58.545070696189555 55.49900798874705 C 0.0 **** -0.24
19362 H 91.39918760204915 58.822124341243864 56.489465719772625 H 0.0 **** 0.06
19363 H 90.26226207740498 59.24497039595212 55.187649623170955 H 0.0 **** 0.06
19364 H 90.62715309387721 57.53651413670758 55.53129415397464 H 0.0 **** 0.06
19365 H 91.86452773016836 58.57939570407041 54.78955310342121 H 0.0 **** 0.06
19366 C 79.38613771948894 97.82671296125608 59.16642189632148 C 0.0 **** -0.24
19367 H 79.29827649149053 98.68775206121 59.830072063332636 H 0.0 **** 0.06
19368 H 80.2905583465041 97.92246298589919 58.56496724572915 H 0.0 **** 0.06
19369 H 78.51598484964151 97.78340292137923 58.511891090041985 H 0.0 **** 0.06
19370 H 79.43982698259035 96.91540956068985 59.76179988505535 H 0.0 **** 0.06
19371 C 56.88992381074516 33.09931474814155 21.145944017140152 C 0.0 **** -0.24
19372 H 56.95090318548603 32.55672942317989 22.08895145599496 H 0.0 **** 0.06
19373 H 57.53805050697076 32.622959482726685 20.410253971499003 H 0.0 **** 0.06
19374 H 57.20857437420182 34.13005217785869 21.298739677486537 H 0.0 **** 0.06
19375 H 55.86021438405115 33.08710857179173 20.787252014565183 H 0.0 **** 0.06
19376 C 90.85510242914205 28.810473787778164 35.76494466819349 C 0.0 **** -0.24
19377 H 90.2607031069166 29.157903374887695 36.61009467170794 H 0.0 **** 0.06
19378 H 90.33513982016137 29.043519587603896 34.83641149224285 H 0.0 **** 0.06
19379 H 90.99853041760201 27.732989296085805 35.84156668211003 H 0.0 **** 0.06
19380 H 91.8243881409673 29.308870435264993 35.77402069760419 H 0.0 **** 0.06
19381 C 67.79876097485493 5.735522644813301 24.98019963056072 C 0.0 **** -0.24
19382 H 67.72100415152235 4.813116284961723 25.556857109305582 H 0.0 **** 0.06
19383 H 68.25654799946528 5.521690252737272 24.01334015173495 H 0.0 **** 0.06
19384 H 68.4149560781988 6.451081595514097 25.523843194978795 H 0.0 **** 0.06
19385 H 66.80384443677852 6.153321737730863 24.8287554254552 H 0.0 **** 0.06
19386 C 82.66128665786746 61.613423243529326 66.83811900761057 C 0.0 **** -0.24
19387 H 82.09029850404983 60.73284203664349 67.13267912446776 H 0.0 **** 0.06
19388 H 82.17682826853263 62.091527738276625 65.98642329729788 H 0.0 **** 0.06
19389 H 83.6725778298077 61.316010703137636 66.56223263738997 H 0.0 **** 0.06
19390 H 82.70375852220468 62.313645756846654 67.67257450728832 H 0.0 **** 0.06
19391 C 92.2102523604147 110.43981708999748 110.96372443374821 C 0.0 **** -0.24
19392 H 91.42658474956579 110.42805166244425 110.20595529874971 H 0.0 **** 0.06
19393 H 92.06467826588977 109.60489358871854 111.64969772916736 H 0.0 **** 0.06
19394 H 92.1645261515709 111.37819174678722 111.516600114854 H 0.0 **** 0.06
19395 H 93.1827201883319 110.34938772388905 110.48060209275371 H 0.0 **** 0.06
19396 C 104.63251750503625 6.216845930840208 33.509145151561256 C 0.0 **** -0.24
19397 H 103.72640138301676 6.515642716960571 32.98112100219549 H 0.0 **** 0.06
19398 H 104.37258232121741 5.878933406944526 34.51212331394049 H 0.0 **** 0.06
19399 H 105.31023071381415 7.068216880689192 33.57688536802789 H 0.0 **** 0.06
19400 H 105.11880753131356 5.407384067583536 32.96650827309381 H 0.0 **** 0.06
19401 C 93.51434616666572 29.81311532995673 60.974718948656864 C 0.0 **** -0.24
19402 H 93.34691174450887 30.559058514208033 61.7505873494812 H 0.0 **** 0.06
19403 H 94.4616479781439 30.014534314499826 60.47521717342243 H 0.0 **** 0.06
19404 H 92.70299817150297 29.856674815249107 60.246781105392834 H 0.0 **** 0.06
19405 H 93.54434189650433 28.82028754237328 61.42481970649123 H 0.0 **** 0.06
19406 C 25.688919655138648 36.585189559106766 98.68156254176421 C 0.0 **** -0.24
19407 H 24.651640001218965 36.86758093975777 98.85868215833023 H 0.0 **** 0.06
19408 H 26.28993824864139 36.846169455157735 99.55267133940916 H 0.0 **** 0.06
19409 H 26.065971969118152 37.11546307197631 97.80798091817823 H 0.0 **** 0.06
19410 H 25.7479108852408 35.51040694096167 98.50772701325968 H 0.0 **** 0.06
19411 C 62.92179614706152 89.8209897927272 84.98837289453616 C 0.0 **** -0.24
19412 H 63.98151977425355 89.60732978920706 84.84978135974208 H 0.0 **** 0.06
19413 H 62.76373928568305 90.89941159562056 84.97334495631927 H 0.0 **** 0.06
19414 H 62.59298701584779 89.41970125581358 85.94796216104768 H 0.0 **** 0.06
19415 H 62.349811709057015 89.35711706524106 84.18587854241827 H 0.0 **** 0.06
19416 C 74.91350689394514 105.30356234423968 112.67799940476469 C 0.0 **** -0.24
19417 H 74.05724942708599 105.73249834875989 113.1990084960051 H 0.0 **** 0.06
19418 H 75.77742972383132 105.9584095864526 112.79980224557298 H 0.0 **** 0.06
19419 H 74.67980111365634 105.20302140539485 111.61840349984544 H 0.0 **** 0.06
19420 H 75.1387011799307 104.32296160334405 113.09592648576587 H 0.0 **** 0.06
19421 C 31.899948161672313 93.67077761182526 33.78774407375926 C 0.0 **** -0.24
19422 H 30.823946373966237 93.80536364157493 33.673148281935084 H 0.0 **** 0.06
19423 H 32.42426958687071 94.37650782597024 33.14280815178563 H 0.0 **** 0.06
19424 H 32.170498860461834 92.65213406632475 33.50792789383348 H 0.0 **** 0.06
19425 H 32.18023530887345 93.84969297335036 34.8261201316443 H 0.0 **** 0.06
19426 C 6.907378278512766 72.05538233865911 6.294694366060909 C 0.0 **** -0.24
19427 H 5.996159269722909 72.05165488698395 6.893715629317924 H 0.0 **** 0.06
19428 H 6.664695367259242 71.8002166116147 5.262791324489186 H 0.0 **** 0.06
19429 H 7.608986958552379 71.32433632531837 6.695709754535798 H 0.0 **** 0.06
19430 H 7.358807043053446 73.04702680223195 6.327720503657744 H 0.0 **** 0.06
19431 C 106.60302280351652 55.496507432339584 1.6876444136002533 C 0.0 **** -0.24
19432 H 106.81274043365114 55.695424684658526 0.6362035510956616 H 0.0 **** 0.06
19433 H 105.60295364589433 55.07354761082464 1.7841227666742725 H 0.0 **** 0.06
19434 H 106.66034785028346 56.427040348321704 2.251797481281585 H 0.0 **** 0.06
19435 H 107.33555059667677 54.78973558182172 2.0771607274310213 H 0.0 **** 0.06
19436 C 25.446358369214103 86.5570172787433 68.02990398365017 C 0.0 **** -0.24
19437 H 25.39801806692211 87.62927645029768 67.84064262413847 H 0.0 **** 0.06
19438 H 24.961212414774778 86.33350258132191 68.98041963975572 H 0.0 **** 0.06
19439 H 26.489207819849454 86.242702248548 68.0716589007088 H 0.0 **** 0.06
19440 H 24.937628871155106 86.02335111263957 67.2279027134343 H 0.0 **** 0.06
19441 C 69.21676833204384 103.6387356061129 77.17264426406501 C 0.0 **** -0.24
19442 H 69.39341302983507 104.63773600558716 76.77365020489881 H 0.0 **** 0.06
19443 H 70.11575433200045 103.28559022636819 77.67843170629618 H 0.0 **** 0.06
19444 H 68.9681086050652 102.96010566195491 76.35626985825613 H 0.0 **** 0.06
19445 H 68.38979736127499 103.67151053054135 77.8822252868089 H 0.0 **** 0.06
19446 C 17.503771009724403 61.564229907782476 35.22760441581977 C 0.0 **** -0.24
19447 H 18.391729027017732 61.724779338255956 35.839087721166266 H 0.0 **** 0.06
19448 H 17.027110432105616 60.62756862915302 35.51724687002377 H 0.0 **** 0.06
19449 H 17.790003815026523 61.51701979207604 34.17743904140673 H 0.0 **** 0.06
19450 H 16.80673701592488 62.3887675536003 35.37716935496411 H 0.0 **** 0.06
19451 C 49.86183730826129 77.89696490758209 53.886996778937515 C 0.0 **** -0.24
19452 H 50.612653274782225 77.39024066055154 54.494127216530416 H 0.0 **** 0.06
19453 H 48.8834374534941 77.45523991564912 54.07615054976969 H 0.0 **** 0.06
19454 H 50.113421050353715 77.7866579662658 52.83192738822012 H 0.0 **** 0.06
19455 H 49.83986428504936 78.95495990366939 54.14692777820764 H 0.0 **** 0.06
19456 C 107.60824676301132 51.01532729146737 98.91159966724194 C 0.0 **** -0.24
19457 H 107.25396683428937 50.12675990097938 99.43398085529023 H 0.0 **** 0.06
19458 H 106.85275527158869 51.34104511816935 98.19584136028578 H 0.0 **** 0.06
19459 H 108.53347478329404 50.783178399868916 98.3836485098021 H 0.0 **** 0.06
19460 H 107.79085113219857 51.81138319267018 99.63327758912735 H 0.0 **** 0.06
19461 C 95.43232011839399 35.80175329523094 23.02830772509685 C 0.0 **** -0.24
19462 H 94.41873978941541 35.74175184544747 23.426132052184386 H 0.0 **** 0.06
19463 H 95.53704210521292 35.103901576345166 22.197616044316646 H 0.0 **** 0.06
19464 H 96.14524796844282 35.54552294366702 23.811588160294065 H 0.0 **** 0.06
19465 H 95.62465905153357 36.81615200529415 22.677848851266788 H 0.0 **** 0.06
19466 C 8.38195324368317 95.79798692652719 92.24201461780498 C 0.0 **** -0.24
19467 H 8.894267344933496 94.88509504217825 91.93983254536863 H 0.0 **** 0.06
19468 H 8.2559537387082 95.8023326236488 93.32503708791691 H 0.0 **** 0.06
19469 H 7.404565939057846 95.8422144168768 91.7622914326559 H 0.0 **** 0.06
19470 H 8.973602211615074 96.66315789708835 91.94186780102785 H 0.0 **** 0.06
19471 C 69.83563020165286 36.10904804310914 36.39550582214717 C 0.0 **** -0.24
19472 H 69.68137149387272 37.12240072409574 36.76647212203913 H 0.0 **** 0.06
19473 H 69.458303972377 35.393096395003795 37.1260012508595 H 0.0 **** 0.06
19474 H 70.90097223518259 35.93953118361702 36.2372818956333 H 0.0 **** 0.06
19475 H 69.30380122806702 35.98256473077441 35.4528339447673 H 0.0 **** 0.06
19476 C 45.27397173845529 88.87324403368558 112.17550458641368 C 0.0 **** -0.24
19477 H 44.64597271205852 88.4249151286632 112.94589205352361 H 0.0 **** 0.06
19478 H 44.648939907197075 89.20974797775483 111.34787378773979 H 0.0 **** 0.06
19479 H 45.98938439475424 88.13404343697846 111.81556628486727 H 0.0 **** 0.06
19480 H 45.81068441008347 89.72440200397313 112.59472650539298 H 0.0 **** 0.06
19481 C 59.8264767162899 71.27231847646829 35.960999995400016 C 0.0 **** -0.24
19482 H 60.0317798528946 72.0269561523364 36.72046691885683 H 0.0 **** 0.06
19483 H 60.60879995382669 70.51325876342216 35.98214531894189 H 0.0 **** 0.06
19484 H 59.802399740605665 71.74285372597083 34.97822115309512 H 0.0 **** 0.06
19485 H 58.86217427750802 70.8068057895278 36.1642021644505 H 0.0 **** 0.06
19486 C 100.64358533842403 103.23496692655715 55.9991650659872 C 0.0 **** -0.24
19487 H 101.1650904211744 104.13172076651551 55.665766891478825 H 0.0 **** 0.06
19488 H 99.7413840586344 103.09720163832327 55.4019791238656 H 0.0 **** 0.06
19489 H 100.3722511743864 103.34063337506916 57.04943824431325 H 0.0 **** 0.06
19490 H 101.2945005001456 102.36941128505663 55.877759770236764 H 0.0 **** 0.06
19491 C 15.360928318835704 30.963312585678665 9.320209853491079 C 0.0 **** -0.24
19492 H 14.47564524827905 31.122279577577018 9.936261631877812 H 0.0 **** 0.06
19493 H 16.070830275442546 30.33619227075414 9.859422896745784 H 0.0 **** 0.06
19494 H 15.822732400906233 31.92525348630511 9.094185136497316 H 0.0 **** 0.06
19495 H 15.072945692134226 30.47108058398649 8.390585129131253 H 0.0 **** 0.06
19496 C 5.334845248405287 28.554385279040595 105.088740609473 C 0.0 **** -0.24
19497 H 5.3396138845390055 29.504286675290125 104.55332391334855 H 0.0 **** 0.06
19498 H 5.078802127760682 27.75036371508486 104.39836848933862 H 0.0 **** 0.06
19499 H 4.596613364038717 28.593829620934414 105.89037286823111 H 0.0 **** 0.06
19500 H 6.322174505274759 28.37116388938999 105.51154103111924 H 0.0 **** 0.06
19501 C 77.45137370670872 107.6515080516154 78.01496179235329 C 0.0 **** -0.24
19502 H 77.75192430407583 108.5883606341248 78.48452860362434 H 0.0 **** 0.06
19503 H 77.16059026750071 106.9366567405608 78.78557846674701 H 0.0 **** 0.06
19504 H 78.28663989942777 107.24962561334226 77.44211780053976 H 0.0 **** 0.06
19505 H 76.60702146299496 107.83327840760143 77.34985110262818 H 0.0 **** 0.06
19506 C 42.9382442287083 100.92493996902223 19.65540619459168 C 0.0 **** -0.24
19507 H 42.98956850664911 100.06369824145196 20.321112483262958 H 0.0 **** 0.06
19508 H 42.97439151997264 100.58618771172985 18.619566089406973 H 0.0 **** 0.06
19509 H 43.782746700963344 101.5858852217917 19.850042589807718 H 0.0 **** 0.06
19510 H 42.008076929867 101.46467064083564 19.829776263704964 H 0.0 **** 0.06
19511 C 87.06097777988643 111.04550368328782 59.869456762749074 C 0.0 **** -0.24
19512 H 88.1441229802877 110.93803049470648 59.93214975513977 H 0.0 **** 0.06
19513 H 86.58723496537851 110.38271616443761 60.593172041808664 H 0.0 **** 0.06
19514 H 86.72869053315986 110.78387515755014 58.86465374122705 H 0.0 **** 0.06
19515 H 86.78672919089928 112.07770974794008 60.08568743211834 H 0.0 **** 0.06
19516 C 37.512545844736565 24.214728489175855 40.548382580195096 C 0.0 **** -0.24
19517 H 37.85235339256485 24.41740697646128 41.56360895966799 H 0.0 **** 0.06
19518 H 36.837584362959774 25.00821395857656 40.225832953550196 H 0.0 **** 0.06
19519 H 36.98752703194128 23.259470419974946 40.52495841149806 H 0.0 **** 0.06
19520 H 38.371738794776405 24.17365491346348 39.879239247155624 H 0.0 **** 0.06
19521 C 53.03948463595157 40.33982711021196 51.903687865542686 C 0.0 **** -0.24
19522 H 53.426237426954465 40.92225371683975 52.739549624444244 H 0.0 **** 0.06
19523 H 52.10805893549561 40.783415820157586 51.551552063289776 H 0.0 **** 0.06
19524 H 52.85414393528602 39.31561569337731 52.22968982116527 H 0.0 **** 0.06
19525 H 53.77005184939806 40.33613389157938 51.09502027449164 H 0.0 **** 0.06
19526 C 36.23685572504314 55.10540861029389 39.25633386933714 C 0.0 **** -0.24
19527 H 35.29657160115249 55.14099299981913 39.80773751777849 H 0.0 **** 0.06
19528 H 36.55366354638733 54.068358319149326 39.14541096795392 H 0.0 **** 0.06
19529 H 36.99825509969537 55.66300342600334 39.80140577575207 H 0.0 **** 0.06
19530 H 36.09705969616988 55.55049686857035 38.27067725435916 H 0.0 **** 0.06
19531 C 32.22024338131003 35.91764936582831 57.385749198421294 C 0.0 **** -0.24
19532 H 33.26411609787285 36.214841779859455 57.28520164543387 H 0.0 **** 0.06
19533 H 32.15755188952199 34.83111448021373 57.452668238359195 H 0.0 **** 0.06
19534 H 31.658851927244022 36.261326469608264 56.516941352416396 H 0.0 **** 0.06
19535 H 31.802203430545177 36.36249618547299 58.28931178688931 H 0.0 **** 0.06
19536 C 18.386037595688823 2.9362115766025454 104.57839881637179 C 0.0 **** -0.24
19537 H 17.658517416299624 2.1886308142507573 104.89480961268487 H 0.0 **** 0.06
19538 H 18.9288765325997 2.568232120113649 103.70675181380574 H 0.0 **** 0.06
19539 H 19.088757816730176 3.1259697273566474 105.39064422750221 H 0.0 **** 0.06
19540 H 17.869111928374355 3.8609347681080664 104.32216209680689 H 0.0 **** 0.06
19541 C 74.13259714937539 51.7056600633656 61.9318431347138 C 0.0 **** -0.24
19542 H 74.67023617124167 51.111230920391066 62.6701971389395 H 0.0 **** 0.06
19543 H 73.2662879954436 52.17253076457612 62.40154691732067 H 0.0 **** 0.06
19544 H 73.80168920197133 51.06108294479639 61.11755777027315 H 0.0 **** 0.06
19545 H 74.79276491982733 52.47904182880963 61.538385911965236 H 0.0 **** 0.06
19546 C 90.6186541836421 60.847522638403944 25.636673017126498 C 0.0 **** -0.24
19547 H 90.74199282307706 61.862413401462845 25.257947866459517 H 0.0 **** 0.06
19548 H 89.57155579424295 60.68045338586998 25.892086995493287 H 0.0 **** 0.06
19549 H 91.23470203446146 60.71522187200185 26.52620488996024 H 0.0 **** 0.06
19550 H 90.92493001919041 60.13409863125571 24.872334332172784 H 0.0 **** 0.06
19551 C 71.66784861442417 54.5804807581142 63.86855455969689 C 0.0 **** -0.24
19552 H 70.79464616760114 53.95090764012225 64.03813208545637 H 0.0 **** 0.06
19553 H 71.5560473591519 55.10866877400146 62.921910349141086 H 0.0 **** 0.06
19554 H 72.56311278817998 53.958328268692604 63.83413330734024 H 0.0 **** 0.06
19555 H 71.75863919319883 55.302535766510005 64.67920735186945 H 0.0 **** 0.06
19556 C 39.1445310501646 5.109058950916491 64.63559738746625 C 0.0 **** -0.24
19557 H 39.13868867951902 5.584066665584601 65.61665290543459 H 0.0 **** 0.06
19558 H 38.76390952290393 5.808899717361598 63.89152846938504 H 0.0 **** 0.06
19559 H 38.51235583898722 4.221736823190142 64.65807624549655 H 0.0 **** 0.06
19560 H 40.16407661551884 4.822541260330013 64.37790991155185 H 0.0 **** 0.06
19561 C 35.81065974642438 42.352399564016906 42.266755076713906 C 0.0 **** -0.24
19562 H 36.143321475468284 43.04265065941328 43.04275575728589 H 0.0 **** 0.06
19563 H 36.62173119892034 41.66797107107104 42.01784116720998 H 0.0 **** 0.06
19564 H 35.5237446760765 42.915252098513264 41.37878372078637 H 0.0 **** 0.06
19565 H 34.95387753965254 41.78400852619882 42.629619112368985 H 0.0 **** 0.06
19566 C 88.44594423885107 22.486662880554576 97.3195805528782 C 0.0 **** -0.24
19567 H 87.50975717466488 22.177678639919108 96.85441185147977 H 0.0 **** 0.06
19568 H 88.23420583655448 23.178180197162206 98.1352054968452 H 0.0 **** 0.06
19569 H 89.07381564797717 22.979393162570716 96.57859226878463 H 0.0 **** 0.06
19570 H 88.96343071989085 21.61031406081551 97.71059194649999 H 0.0 **** 0.06
19571 C 52.912955673626584 49.52978687435594 93.2071494278118 C 0.0 **** -0.24
19572 H 51.87552349438059 49.26985550430766 92.99575744709699 H 0.0 **** 0.06
19573 H 53.415746753877954 48.67394045142087 93.65992480594102 H 0.0 **** 0.06
19574 H 52.94234152294143 50.374731138885046 93.89570959015967 H 0.0 **** 0.06
19575 H 53.41645248529099 49.79874866570346 92.27930470580168 H 0.0 **** 0.06
19576 C 6.369685448917011 111.26789443058634 51.99250233959712 C 0.0 **** -0.24
19577 H 6.287476155703814 110.18601269955143 52.09948819936903 H 0.0 **** 0.06
19578 H 7.386889683893401 111.52644998807185 51.70039638540188 H 0.0 **** 0.06
19579 H 6.130195801564099 111.74586755646587 52.94269959421533 H 0.0 **** 0.06
19580 H 5.672549328716713 111.60988428226872 51.22759871361475 H 0.0 **** 0.06
19581 C 43.21699265804252 93.77932443236315 86.80100508414404 C 0.0 **** -0.24
19582 H 43.14871272950154 94.86208578663059 86.70038680939484 H 0.0 **** 0.06
19583 H 44.012706858083085 93.52833304899053 87.50277047021501 H 0.0 **** 0.06
19584 H 43.43742707965246 93.33701351373827 85.82886611579664 H 0.0 **** 0.06
19585 H 42.26858817018653 93.38774582134693 87.17152717704812 H 0.0 **** 0.06
19586 C 76.89990973925862 18.461725421739526 69.6172656036427 C 0.0 **** -0.24
19587 H 76.11550736206547 19.183071250631016 69.84546173132205 H 0.0 **** 0.06
19588 H 76.81971792758438 17.61053585180833 70.29325818404067 H 0.0 **** 0.06
19589 H 77.87410784545878 18.934382595007555 69.74102592860842 H 0.0 **** 0.06
19590 H 76.79005723546717 18.12002160100624 68.58739114838062 H 0.0 **** 0.06
19591 C 1.1066270702079493 108.73105481914408 104.3912361828975 C 0.0 **** -0.24
19592 H 1.4158023262346973 108.89829702043926 105.42288781177433 H 0.0 **** 0.06
19593 H 0.5027138151034762 109.57278090159409 104.05120028202981 H 0.0 **** 0.06
19594 H 0.5188260306071868 107.81511873367182 104.33287180282673 H 0.0 **** 0.06
19595 H 1.989210283424299 108.63697311178782 103.75893177357455 H 0.0 **** 0.06
19596 C 3.8851340110893364 47.15528518042126 105.8459085860986 C 0.0 **** -0.24
19597 H 4.368881747321664 46.4531441525246 105.16651509043098 H 0.0 **** 0.06
19598 H 3.45089756611101 46.60985831302264 106.68329833098758 H 0.0 **** 0.06
19599 H 3.0988026357709124 47.691959874504164 105.3136899137537 H 0.0 **** 0.06
19600 H 4.622557532122313 47.866548535484185 106.21800989310788 H 0.0 **** 0.06
19601 C 90.49491754102695 25.08374012961866 25.80791205332845 C 0.0 **** -0.24
19602 H 89.62399606886933 25.710569328238762 25.999816568537568 H 0.0 **** 0.06
19603 H 91.40224353240305 25.656163034904893 25.99915252328463 H 0.0 **** 0.06
19604 H 90.48370439847392 24.75613016086703 24.76789646723287 H 0.0 **** 0.06
19605 H 90.46751530998475 24.213340721367615 26.463530373716587 H 0.0 **** 0.06
19606 C 14.682862480755126 12.057523884784928 51.47740315176934 C 0.0 **** -0.24
19607 H 15.515633887187896 11.890411349323287 50.79464803775178 H 0.0 **** 0.06
19608 H 15.067722163483676 12.29255268939049 52.469999698071504 H 0.0 **** 0.06
19609 H 14.07014382204261 11.156733049622673 51.528483315341084 H 0.0 **** 0.06
19610 H 14.076776016634721 12.888385397146337 51.11572683725376 H 0.0 **** 0.06
19611 C 104.27715188694626 54.73820558432062 55.29361045848761 C 0.0 **** -0.24
19612 H 103.87690874534454 55.743306362689346 55.16158686802491 H 0.0 **** 0.06
19613 H 103.8240614927754 54.0681634533388 54.5625509118344 H 0.0 **** 0.06
19614 H 104.04821786947113 54.38656804635384 56.29974497345392 H 0.0 **** 0.06
19615 H 105.35732629327913 54.755136845371254 55.15126253970643 H 0.0 **** 0.06
19616 C 48.444898669786454 72.83580123049043 8.02935157661841 C 0.0 **** -0.24
19617 H 48.25486009922844 73.68303149912234 8.68816763198015 H 0.0 **** 0.06
19618 H 49.44127302877527 72.92826403206985 7.595940436293972 H 0.0 **** 0.06
19619 H 47.701830858448304 72.82143601155468 7.23180516613138 H 0.0 **** 0.06
19620 H 48.381546248469874 71.9097021218827 8.600862129895631 H 0.0 **** 0.06
19621 C 12.413591266748384 70.62249712174565 94.85649641773233 C 0.0 **** -0.24
19622 H 13.11426522018398 71.45658529640608 94.87665226211982 H 0.0 **** 0.06
19623 H 12.798831828848407 69.83889005677912 94.20397356422768 H 0.0 **** 0.06
19624 H 11.449342760990277 70.96695764116356 94.48081937270132 H 0.0 **** 0.06
19625 H 12.290393316940964 70.22766001456898 95.86534197364739 H 0.0 **** 0.06
19626 C 70.5445232046188 102.07878528353893 70.03543417836627 C 0.0 **** -0.24
19627 H 71.56330427183238 102.45962480308728 69.95883895748133 H 0.0 **** 0.06
19628 H 70.04809771260864 102.17309186573081 69.07005065692388 H 0.0 **** 0.06
19629 H 69.99826316617091 102.6525935329002 70.78312955334025 H 0.0 **** 0.06
19630 H 70.57083104455796 101.0294670554812 70.32941470192017 H 0.0 **** 0.06
19631 C 79.98837983861745 71.0359907984905 27.676398691561353 C 0.0 **** -0.24
19632 H 80.89522599718154 70.60149911902724 28.098375560736038 H 0.0 **** 0.06
19633 H 79.1156044124784 70.54708425915464 28.108760598285976 H 0.0 **** 0.06
19634 H 79.98737735064006 70.8927913680553 26.59471553720725 H 0.0 **** 0.06
19635 H 79.95769625916776 72.10248493598957 27.90123242490963 H 0.0 **** 0.06
19636 C 11.744696155222954 80.45859579643391 107.17180627394436 C 0.0 **** -0.24
19637 H 11.160427818322859 81.17983727207732 107.74335123351595 H 0.0 **** 0.06
19638 H 11.739701657359134 79.49782828480232 107.68743819964459 H 0.0 **** 0.06
19639 H 12.769775895930763 80.81579728550236 107.07611939372579 H 0.0 **** 0.06
19640 H 11.307215434611408 80.34110006259235 106.18076302600446 H 0.0 **** 0.06
19641 C 13.125222454155406 23.057110509675912 110.09890309721231 C 0.0 **** -0.24
19642 H 12.172117460135055 23.532119728746427 109.86833542616762 H 0.0 **** 0.06
19643 H 13.862625388142362 23.33779195040368 109.34752424770329 H 0.0 **** 0.06
19644 H 13.00023707803345 21.97413541310045 110.09897879641096 H 0.0 **** 0.06
19645 H 13.464447863428362 23.38345193157495 111.08176054272548 H 0.0 **** 0.06
19646 C 32.59465728106596 76.34657615165762 53.868790372065234 C 0.0 **** -0.24
19647 H 33.15406745044453 75.43120573701327 54.06286942599198 H 0.0 **** 0.06
19648 H 33.12442530063845 77.19442352463554 54.303223421667525 H 0.0 **** 0.06
19649 H 31.60412718151906 76.26824495447974 54.316015918538056 H 0.0 **** 0.06
19650 H 32.497107054102514 76.49146096290207 52.792128017591125 H 0.0 **** 0.06
19651 C 58.89538189237479 0.7229888176985924 61.10098503583691 C 0.0 **** -0.24
19652 H 58.78302227769142 1.326512561559639 60.20114132097601 H 0.0 **** 0.06
19653 H 59.81860717960415 0.9993859270803398 61.610659559108825 H 0.0 **** 0.06
19654 H 58.932854487324484 -0.3318590193257336 60.82868144819582 H 0.0 **** 0.06
19655 H 58.04827284217178 0.8974379795252503 61.76396852484126 H 0.0 **** 0.06
19656 C 22.471204751590847 1.7411100116733902 63.42758892614125 C 0.0 **** -0.24
19657 H 21.68733221711606 1.2292112434435865 62.869570218621966 H 0.0 **** 0.06
19658 H 22.032312543219515 2.549233917328783 64.01267931885101 H 0.0 **** 0.06
19659 H 23.203502874080215 2.1502694605323605 62.73173378126385 H 0.0 **** 0.06
19660 H 22.96204393169507 1.0333629054641467 64.09690157311141 H 0.0 **** 0.06
19661 C 93.04138971978315 12.052448486905178 10.809937544763415 C 0.0 **** -0.24
19662 H 92.92674011904214 11.826606712893234 9.749507262488464 H 0.0 **** 0.06
19663 H 93.89398776754194 11.502467717621002 11.208383419906113 H 0.0 **** 0.06
19664 H 92.13690379273123 11.757911366581666 11.343065613087191 H 0.0 **** 0.06
19665 H 93.20676465715874 13.122140830885872 10.936743634951029 H 0.0 **** 0.06
19666 C 77.08227166592226 26.41056563281976 27.26236816428488 C 0.0 **** -0.24
19667 H 76.65840651312146 26.944863689545613 28.111778091934298 H 0.0 **** 0.06
19668 H 76.29218565716556 25.865160274222788 26.74607997730743 H 0.0 **** 0.06
19669 H 77.83860691384922 25.708921773208388 27.614983123869024 H 0.0 **** 0.06
19670 H 77.5406083722373 27.12379962367295 26.576134080445428 H 0.0 **** 0.06
19671 C 100.41227637777911 47.910662813760666 55.38873442800647 C 0.0 **** -0.24
19672 H 100.46999946541547 48.96976081659074 55.13546596263939 H 0.0 **** 0.06
19673 H 100.33861343590337 47.79988636141218 56.471250857354505 H 0.0 **** 0.06
19674 H 101.30698341752037 47.4027394948576 55.031457934013275 H 0.0 **** 0.06
19675 H 99.5320985815585 47.472723064034724 54.91848535992921 H 0.0 **** 0.06
19676 C 51.08985105819352 27.64351245357207 42.27964648118834 C 0.0 **** -0.24
19677 H 50.192849405653305 27.845660836329493 42.864510930972386 H 0.0 **** 0.06
19678 H 51.03724029912496 28.18410803869598 41.33560739069716 H 0.0 **** 0.06
19679 H 51.16067613920188 26.57371075565397 42.08280001168134 H 0.0 **** 0.06
19680 H 51.967919323647834 27.969575751226657 42.838405210818195 H 0.0 **** 0.06
19681 C 93.07216996915659 90.30752679951524 19.575072239018823 C 0.0 **** -0.24
19682 H 93.07982075183679 91.1585290264093 18.893868835966146 H 0.0 **** 0.06
19683 H 93.07350394488734 89.38164376935131 18.998121340011267 H 0.0 **** 0.06
19684 H 92.17833912179509 90.34756714329092 20.197464049591133 H 0.0 **** 0.06
19685 H 93.95913954853899 90.34226849431275 20.20849344855918 H 0.0 **** 0.06
19686 C 57.66097756834637 2.444657730923865 41.63697779685765 C 0.0 **** -0.24
19687 H 58.295986219220765 2.5900430985550713 40.76229181078088 H 0.0 **** 0.06
19688 H 57.333662754380214 3.4134525849399324 42.01308799278695 H 0.0 **** 0.06
19689 H 58.22483068736625 1.924704855870118 42.41176040125748 H 0.0 **** 0.06
19690 H 56.79105208817782 1.848854229907971 41.35856029926424 H 0.0 **** 0.06
19691 C 78.10967634292493 85.00516075592998 55.763340086010516 C 0.0 **** -0.24
19692 H 78.79071452320957 84.22438351852509 55.425197700051484 H 0.0 **** 0.06
19693 H 78.05232088416187 85.79025332416086 55.00871669790709 H 0.0 **** 0.06
19694 H 78.47613985332688 85.42622091205678 56.69952234697158 H 0.0 **** 0.06
19695 H 77.11802469029328 84.57909756551277 55.92043442452976 H 0.0 **** 0.06
19696 C 57.5722719538779 71.06262087342665 90.58718632984434 C 0.0 **** -0.24
19697 H 56.84325061311017 70.36056460823397 90.1827382301833 H 0.0 **** 0.06
19698 H 57.88124032309139 70.73342262547246 91.57979476568562 H 0.0 **** 0.06
19699 H 57.12471812896811 72.05335236889269 90.65599753182039 H 0.0 **** 0.06
19700 H 58.441813742454144 71.10169749574194 89.9306198673776 H 0.0 **** 0.06
19701 C 44.88825026182142 97.52684905196503 59.49377472259954 C 0.0 **** -0.24
19702 H 43.931335670107885 97.3062726784577 59.9659969940912 H 0.0 **** 0.06
19703 H 44.764492965827934 97.53290258195653 58.40986928607083 H 0.0 **** 0.06
19704 H 45.61513562124473 96.7635456389302 59.7723640120407 H 0.0 **** 0.06
19705 H 45.24124399697047 98.50325243066177 59.825336546865714 H 0.0 **** 0.06
19706 C 56.23853802926206 90.71174233657996 57.62719450590831 C 0.0 **** -0.24
19707 H 56.15463805698039 90.69867843455643 58.71422880224452 H 0.0 **** 0.06
19708 H 56.03046988152454 89.71592029919191 57.23487505839529 H 0.0 **** 0.06
19709 H 57.24856264899569 91.0104001648275 57.34525976111786 H 0.0 **** 0.06
19710 H 55.52142950807013 91.42188639516417 57.21667152664503 H 0.0 **** 0.06
19711 C 111.53266511030724 51.044191926551136 17.143672044729925 C 0.0 **** -0.24
19712 H 112.132779916954 50.211957407305235 16.77572053206663 H 0.0 **** 0.06
19713 H 110.63708287580454 50.65701507693347 17.630367000739994 H 0.0 **** 0.06
19714 H 111.24620527945521 51.682633527110866 16.308286238306152 H 0.0 **** 0.06
19715 H 112.11480065826909 51.62293533992613 17.860329994181598 H 0.0 **** 0.06
19716 C 4.755227583061341 19.271191316258484 24.527321965868197 C 0.0 **** -0.24
19717 H 3.881115516077447 19.842280663985044 24.21158387308185 H 0.0 **** 0.06
19718 H 5.355289288286473 19.873081686949508 25.21001907248548 H 0.0 **** 0.06
19719 H 5.3519730693908265 19.00832388887515 23.653212135108888 H 0.0 **** 0.06
19720 H 4.430950201204675 18.36126172862988 25.031930423290106 H 0.0 **** 0.06
19721 C 105.48872300088863 11.536980073970483 89.22064873158698 C 0.0 **** -0.24
19722 H 104.58202438776627 11.36034840506909 89.79959630235459 H 0.0 **** 0.06
19723 H 105.42897500656608 10.99342911591927 88.27653695262148 H 0.0 **** 0.06
19724 H 106.35400102791448 11.189835641098469 89.78528052660397 H 0.0 **** 0.06
19725 H 105.58991876617094 12.6035015225075 89.02058927640397 H 0.0 **** 0.06
19726 C 16.29755928812818 110.66009771476247 96.21857309367076 C 0.0 **** -0.24
19727 H 15.281789815094722 111.05549885351894 96.21243220557554 H 0.0 **** 0.06
19728 H 16.398457761012043 109.90371527270722 95.43992971167202 H 0.0 **** 0.06
19729 H 16.506344601391508 110.21081039822506 97.19009049320016 H 0.0 **** 0.06
19730 H 17.004214478617 111.46908837426913 96.03286106815449 H 0.0 **** 0.06
19731 C 109.90811394608728 15.949369221940827 33.39831547560874 C 0.0 **** -0.24
19732 H 109.76017041321168 15.984410418235228 32.31948177542186 H 0.0 **** 0.06
19733 H 109.33973712806943 16.751043991239925 33.869824482987184 H 0.0 **** 0.06
19734 H 110.96787242427463 16.073963826376087 33.62394708386074 H 0.0 **** 0.06
19735 H 109.56600383908076 14.987416068858693 33.78091609490629 H 0.0 **** 0.06
19736 C 93.92694390746607 104.34970842605611 20.820083895510134 C 0.0 **** -0.24
19737 H 92.9796617728723 104.73694898350965 21.19462717510128 H 0.0 **** 0.06
19738 H 93.91657232779352 104.35797425863902 19.729619515845066 H 0.0 **** 0.06
19739 H 94.0674858932131 103.3286871589554 21.17447900940466 H 0.0 **** 0.06
19740 H 94.74333375595063 104.97511068011622 21.18003941187268 H 0.0 **** 0.06
19741 C 89.24998947175578 104.52048771819756 99.21340311499932 C 0.0 **** -0.24
19742 H 89.97331161780781 104.72666612549577 100.00131671235613 H 0.0 **** 0.06
19743 H 88.45260037855476 103.89119987938142 99.60803181281597 H 0.0 **** 0.06
19744 H 89.74664776162595 104.00470316136011 98.390881815272 H 0.0 **** 0.06
19745 H 88.82928792260009 105.45845374036503 98.85212996166536 H 0.0 **** 0.06
19746 C 75.23853000164723 108.05119555016199 68.50377901277494 C 0.0 **** -0.24
19747 H 75.1284361821672 108.20922241970962 69.57633074238726 H 0.0 **** 0.06
19748 H 74.50339042939345 108.65298110919 67.96974126014811 H 0.0 **** 0.06
19749 H 75.08144768369888 106.99694750436825 68.27411483192486 H 0.0 **** 0.06
19750 H 76.24233478624353 108.34398157640354 68.19517779083236 H 0.0 **** 0.06
19751 C 49.40718536096864 19.459950524261714 83.41045222411543 C 0.0 **** -0.24
19752 H 49.19025405992363 18.560406251783732 82.8344267916165 H 0.0 **** 0.06
19753 H 48.774167318140826 19.484136879350288 84.29702964475825 H 0.0 **** 0.06
19754 H 49.20986517248457 20.33976225125751 82.7979945045185 H 0.0 **** 0.06
19755 H 50.45519863346243 19.453488074916436 83.7111694450088 H 0.0 **** 0.06
19756 C 51.934716315515516 88.32433810465596 20.263438953626405 C 0.0 **** -0.24
19757 H 51.008324447416754 88.86440166545964 20.456961051610506 H 0.0 **** 0.06
19758 H 51.90801388297618 87.36250919679031 20.776400521666574 H 0.0 **** 0.06
19759 H 52.77892661758841 88.9091416329245 20.629645491104156 H 0.0 **** 0.06
19760 H 52.043424288381885 88.16223362825525 19.191796282336554 H 0.0 **** 0.06
19761 C 10.704723085932187 70.99329335681517 5.723515253661418 C 0.0 **** -0.24
19762 H 11.210263398422981 70.38623369712133 6.474109629246811 H 0.0 **** 0.06
19763 H 11.094383294916213 72.01117879399445 5.757095038557281 H 0.0 **** 0.06
19764 H 9.634266643730555 71.00676801799932 5.927629944313708 H 0.0 **** 0.06
19765 H 10.88120354186998 70.56937594007164 4.734631489787574 H 0.0 **** 0.06
19766 C 12.316714058996837 28.113412630526568 76.32832538466886 C 0.0 **** -0.24
19767 H 12.265755504371626 27.074816811604137 76.65538401616232 H 0.0 **** 0.06
19768 H 13.34988222033654 28.369693260635444 76.08976032430365 H 0.0 **** 0.06
19769 H 11.955797873816508 28.763425082867855 77.12555855209007 H 0.0 **** 0.06
19770 H 11.695674811255557 28.245879366542653 75.44164546378857 H 0.0 **** 0.06
19771 C 22.926215981959558 68.74682784799975 111.10324339392014 C 0.0 **** -0.24
19772 H 23.414960887391715 68.19440000999262 111.90630337871414 H 0.0 **** 0.06
19773 H 21.847001214257148 68.60864355637747 111.17227239235433 H 0.0 **** 0.06
19774 H 23.27976761317035 68.37571620524648 110.14106575678267 H 0.0 **** 0.06
19775 H 23.165122079905927 69.80659508312539 111.19482232110579 H 0.0 **** 0.06
19776 C 100.01854091882822 46.84209300196642 65.73392946555037 C 0.0 **** -0.24
19777 H 99.66731207520982 45.961864809434644 66.27267619241508 H 0.0 **** 0.06
19778 H 99.16553640919659 47.462433662213215 65.45678829866705 H 0.0 **** 0.06
19779 H 100.54844874439564 46.52990693173325 64.83409562768514 H 0.0 **** 0.06
19780 H 100.69219401580017 47.41352885186055 66.3710894635189 H 0.0 **** 0.06
19781 C 96.86007181128457 79.24073742020852 61.9833497323084 C 0.0 **** -0.24
19782 H 96.67782363379402 78.31387643733689 62.527791413264936 H 0.0 **** 0.06
19783 H 95.92784717489408 79.59040268351623 61.54022131278208 H 0.0 **** 0.06
19784 H 97.59168201950021 79.05933603972423 61.19557281657603 H 0.0 **** 0.06
19785 H 97.24345018087848 79.99591023997507 62.66839596421198 H 0.0 **** 0.06
19786 C 82.00377452788939 5.583409700809341 13.058893837100555 C 0.0 **** -0.24
19787 H 81.11954203588775 6.181533562966592 12.836326555062577 H 0.0 **** 0.06
19788 H 81.95812152093472 5.237958748535945 14.091443982428462 H 0.0 **** 0.06
19789 H 82.8973043129401 6.190817418131559 12.916174688026516 H 0.0 **** 0.06
19790 H 82.037837820211 4.724344559760738 12.388207461322189 H 0.0 **** 0.06
19791 C 70.42313203387437 63.36086201042349 44.14420562074682 C 0.0 **** -0.24
19792 H 69.45711619972118 63.77433475756379 44.43407126027378 H 0.0 **** 0.06
19793 H 71.20918425085478 64.08232045054012 44.367964510376254 H 0.0 **** 0.06
19794 H 70.41941212275023 63.14632300941071 43.075776615407676 H 0.0 **** 0.06
19795 H 70.60438180685227 62.44072178900643 44.69912709741655 H 0.0 **** 0.06
19796 C 16.39949943403218 107.77669364620634 23.520310951438105 C 0.0 **** -0.24
19797 H 15.859070933126873 108.10017450750044 24.409589043125862 H 0.0 **** 0.06
19798 H 16.583607385332186 106.70402165917577 23.577655904000807 H 0.0 **** 0.06
19799 H 17.350766418246394 108.30576647234346 23.461706616248193 H 0.0 **** 0.06
19800 H 15.806072728222375 107.99708491180637 22.633077152633334 H 0.0 **** 0.06
19801 C 109.01656253044844 44.6757492115385 101.78337232380193 C 0.0 **** -0.24
19802 H 109.56445310105255 43.743151593216 101.64089034266357 H 0.0 **** 0.06
19803 H 107.94824322184213 44.48985745736542 101.67195190307257 H 0.0 **** 0.06
19804 H 109.33924454323507 45.402744834997364 101.03884629517904 H 0.0 **** 0.06
19805 H 109.21696618382632 45.06460828591466 102.78180479197994 H 0.0 **** 0.06
19806 C 8.42533491429316 67.77346204538023 80.14470867752581 C 0.0 **** -0.24
19807 H 7.757824783135192 67.18594531451902 79.514132178779 H 0.0 **** 0.06
19808 H 7.844864424621505 68.26697344268118 80.92465543311368 H 0.0 **** 0.06
19809 H 8.930912203819176 68.52391316520851 79.53780831118789 H 0.0 **** 0.06
19810 H 9.16432216305435 67.1167598420434 80.60275387054469 H 0.0 **** 0.06
19811 C 53.80623694518692 37.96631400503395 47.139362088822196 C 0.0 **** -0.24
19812 H 53.19394575106075 37.13929120810768 46.77915491813752 H 0.0 **** 0.06
19813 H 53.87876601262444 38.7292417018035 46.363866577438245 H 0.0 **** 0.06
19814 H 54.802663775448224 37.60094475890102 47.384409389519874 H 0.0 **** 0.06
19815 H 53.34758040422945 38.395668926459464 48.02987312017967 H 0.0 **** 0.06
19816 C 77.03959836332385 79.7783454905067 73.60207906819912 C 0.0 **** -0.24
19817 H 76.28810145267192 79.31253540387263 74.23902624649187 H 0.0 **** 0.06
19818 H 77.4417691679146 79.03540208344523 72.91230939203612 H 0.0 **** 0.06
19819 H 77.84510659823303 80.17256270031803 74.2213485123248 H 0.0 **** 0.06
19820 H 76.58419533651252 80.59081270616275 73.03668677687583 H 0.0 **** 0.06
19821 C 63.97144614047178 70.37733703360874 13.654926240863361 C 0.0 **** -0.24
19822 H 64.13186574026219 69.47684017860882 13.06308480269169 H 0.0 **** 0.06
19823 H 63.72938072964961 70.09955769020138 14.681265084109228 H 0.0 **** 0.06
19824 H 63.1463759315398 70.94993824688646 13.22939071845613 H 0.0 **** 0.06
19825 H 64.87717847736678 70.98362644746607 13.646773653202459 H 0.0 **** 0.06
19826 C 96.6677895503831 36.60490511362161 13.868125541013626 C 0.0 **** -0.24
19827 H 95.62544309330022 36.816008264695256 14.10833118085337 H 0.0 **** 0.06
19828 H 97.0161510738917 37.308858885936786 13.112281819746713 H 0.0 **** 0.06
19829 H 96.75343949294043 35.58824137532616 13.485667347274443 H 0.0 **** 0.06
19830 H 97.27578633890607 36.7070184085203 14.767498221499054 H 0.0 **** 0.06
19831 C 96.35737749179296 17.504943471345587 9.268360839272816 C 0.0 **** -0.24
19832 H 97.24571181792595 16.933991234837073 9.538653389808687 H 0.0 **** 0.06
19833 H 95.89868218848412 17.91040801696149 10.169585255615857 H 0.0 **** 0.06
19834 H 95.64737740314797 16.8520050433874 8.7597984264997 H 0.0 **** 0.06
19835 H 96.63954342393853 18.321237284240812 8.604312557881798 H 0.0 **** 0.06
19836 C 109.8761032931246 107.33388079885535 39.875249452586615 C 0.0 **** -0.24
19837 H 110.54991643197042 108.19064848912109 39.8687402757603 H 0.0 **** 0.06
19838 H 109.1198921206782 107.47289569790905 40.64844733281765 H 0.0 **** 0.06
19839 H 110.44449917052063 106.4268365626599 40.08201089827418 H 0.0 **** 0.06
19840 H 109.39135352916094 107.24520225529898 38.90336101615773 H 0.0 **** 0.06
19841 C 68.2623488509289 73.32201787547098 24.48835250526679 C 0.0 **** -0.24
19842 H 68.9343966369479 74.13881014720306 24.223238183723026 H 0.0 **** 0.06
19843 H 67.31859447418401 73.44091242480906 23.955920196906476 H 0.0 **** 0.06
19844 H 68.07959377925454 73.33670161637721 25.562266046166684 H 0.0 **** 0.06
19845 H 68.71926072473707 72.37226419845084 24.209836980539535 H 0.0 **** 0.06
19846 C 22.156548544568636 62.67448495544346 106.97956830251911 C 0.0 **** -0.24
19847 H 21.322704760305385 62.178602836285506 107.47616052939874 H 0.0 **** 0.06
19848 H 22.91610393123517 61.93653952349524 106.7225167256416 H 0.0 **** 0.06
19849 H 22.58535223207656 63.420370378125995 107.64839091852714 H 0.0 **** 0.06
19850 H 21.799970373517823 63.16218614249618 106.07203374168964 H 0.0 **** 0.06
19851 C 66.36802119058461 86.61901154287116 81.26163784465564 C 0.0 **** -0.24
19852 H 66.36967254814888 85.66796793512964 81.79326333570464 H 0.0 **** 0.06
19853 H 65.68540797940815 87.31068636471304 81.75634643735322 H 0.0 **** 0.06
19854 H 66.04243937724848 86.45981338966479 80.23331208878477 H 0.0 **** 0.06
19855 H 67.37456485753268 87.0375784819771 81.2636295167801 H 0.0 **** 0.06
19856 C 32.46885227809012 16.144798755653564 10.265847397849384 C 0.0 **** -0.24
19857 H 32.25080606872344 15.505828105797367 11.121670836369361 H 0.0 **** 0.06
19858 H 32.26403217306419 15.600600696893753 9.343731567803815 H 0.0 **** 0.06
19859 H 33.518416637401636 16.437986534442683 10.290524809033812 H 0.0 **** 0.06
19860 H 31.84207863408298 17.03621969199892 10.309171456779566 H 0.0 **** 0.06
19861 C 100.79705516665763 53.21780805717344 97.67159341243118 C 0.0 **** -0.24
19862 H 99.89137450093776 53.70187397996963 97.30570254928335 H 0.0 **** 0.06
19863 H 100.94239479469618 52.27497623034486 97.1436445822599 H 0.0 **** 0.06
19864 H 100.69916886710024 53.0260576250663 98.73946997593586 H 0.0 **** 0.06
19865 H 101.6533885896421 53.86918898500656 97.49539643101829 H 0.0 **** 0.06
19866 C 62.381417224070525 84.04744751025373 31.227589327586088 C 0.0 **** -0.24
19867 H 61.444662217662206 83.69691202823367 31.660905985610327 H 0.0 **** 0.06
19868 H 62.294106304207695 85.10636616039483 30.98337116256198 H 0.0 **** 0.06
19869 H 62.59573543969311 83.4808395878743 30.32081613790521 H 0.0 **** 0.06
19870 H 63.189165893704065 83.90425837327825 31.94533534706403 H 0.0 **** 0.06
19871 C 8.840223541796348 0.026770588249291905 39.164097393711955 C 0.0 **** -0.24
19872 H 9.294625166369372 -0.7311927132511755 39.80111160991507 H 0.0 **** 0.06
19873 H 9.098601443297326 -0.17101930163062207 38.12282820483762 H 0.0 **** 0.06
19874 H 9.21077836472439 1.0118459013956453 39.450181684120935 H 0.0 **** 0.06
19875 H 7.756582420425204 -0.0025084708901204067 39.28088816663964 H 0.0 **** 0.06
19876 C 55.51255091735661 37.984528311909514 23.644744941879836 C 0.0 **** -0.24
19877 H 56.35486542109756 38.319491201609026 24.250836999468074 H 0.0 **** 0.06
19878 H 55.88305513757236 37.55246720213938 22.715359560287677 H 0.0 **** 0.06
19879 H 54.86723955685059 38.83328343284904 23.419753065517664 H 0.0 **** 0.06
19880 H 54.94600340567312 37.23307201325807 24.195865447140708 H 0.0 **** 0.06
19881 C 13.63316607794242 80.92895014215091 9.591966542588546 C 0.0 **** -0.24
19882 H 14.140232775946075 81.66796960087677 10.212248726936025 H 0.0 **** 0.06
19883 H 12.553970746624657 81.05047381952835 9.688996767472293 H 0.0 **** 0.06
19884 H 13.917000385935054 79.92754293188827 9.915317845364541 H 0.0 **** 0.06
19885 H 13.922326181961324 81.07002666255235 8.550204920162143 H 0.0 **** 0.06
19886 C 96.95472770396145 103.0118335494708 3.8996020518547994 C 0.0 **** -0.24
19887 H 96.45215384370971 103.87799146938849 3.4685899990959683 H 0.0 **** 0.06
19888 H 96.41795573093287 102.10484665724218 3.6200022258939697 H 0.0 **** 0.06
19889 H 96.96996158216615 103.10527423344988 4.9856288356393605 H 0.0 **** 0.06
19890 H 97.97684378776154 102.96064147139069 3.524225600256429 H 0.0 **** 0.06
19891 C 30.192150273171194 75.20535723113096 61.577975379613804 C 0.0 **** -0.24
19892 H 30.358846264851138 75.05399273948478 62.64401223252207 H 0.0 **** 0.06
19893 H 29.545392264544404 76.07081566485795 61.43114482693858 H 0.0 **** 0.06
19894 H 29.71721766150887 74.32001254793542 61.15491603212274 H 0.0 **** 0.06
19895 H 31.14739814521063 75.37757539945247 61.081831441527186 H 0.0 **** 0.06
19896 C 71.17002463337951 107.09192856651302 96.85819682499141 C 0.0 **** -0.24
19897 H 71.59051372158291 107.33331404451289 95.88155235879321 H 0.0 **** 0.06
19898 H 70.983846826422 108.01344175842102 97.41012496531164 H 0.0 **** 0.06
19899 H 71.87284277962556 106.47046313867405 97.413131745779 H 0.0 **** 0.06
19900 H 70.23307081807803 106.55081970158123 96.7257727316235 H 0.0 **** 0.06
19901 C 0.8001961713017351 50.367749204071956 99.13023049249426 C 0.0 **** -0.24
19902 H 0.06375896562116168 50.43120114594903 98.32981658585743 H 0.0 **** 0.06
19903 H 1.6269258272665468 49.73140961102363 98.8138329395569 H 0.0 **** 0.06
19904 H 0.33501061078327155 49.944427944610275 100.02026862438015 H 0.0 **** 0.06
19905 H 1.1764708724405182 51.3659795796631 99.35707611359032 H 0.0 **** 0.06
19906 C 81.07854613268063 70.66661563710244 8.971919959847241 C 0.0 **** -0.24
19907 H 81.15123186645468 69.99484907916334 9.827592736674603 H 0.0 **** 0.06
19908 H 81.42244400444821 70.15040359579652 8.075406829371076 H 0.0 **** 0.06
19909 H 81.69876080012767 71.54549890416087 9.146617789203589 H 0.0 **** 0.06
19910 H 80.04073632504918 70.97387952307199 8.838851715435283 H 0.0 **** 0.06
19911 C 82.23823659560088 21.328854199875565 92.97450894795958 C 0.0 **** -0.24
19912 H 82.91480765228482 21.778412509117345 93.70158689682413 H 0.0 **** 0.06
19913 H 82.37230774242062 20.246743875325194 92.97577791082855 H 0.0 **** 0.06
19914 H 82.45900910059535 21.72199799846439 91.98253173044628 H 0.0 **** 0.06
19915 H 81.20886851459858 21.568467643966528 93.2394694935526 H 0.0 **** 0.06
19916 C 47.10979158033814 52.48881392923914 9.568114544389317 C 0.0 **** -0.24
19917 H 46.52349083654599 51.8870902642827 10.262522532549212 H 0.0 **** 0.06
19918 H 48.169565998101916 52.36988625085023 9.790804260781954 H 0.0 **** 0.06
19919 H 46.83080421673361 53.53775039545862 9.67247824029414 H 0.0 **** 0.06
19920 H 46.91205959893574 52.16097354908644 8.547171263031856 H 0.0 **** 0.06
19921 C 57.83591678883766 30.6680448647096 67.22552713349674 C 0.0 **** -0.24
19922 H 57.01844274039413 29.95707145696027 67.11104432935815 H 0.0 **** 0.06
19923 H 58.28642547826332 30.547731681636513 68.21101791381574 H 0.0 **** 0.06
19924 H 57.451364986997426 31.682520714149327 67.12273596547561 H 0.0 **** 0.06
19925 H 58.58743394969574 30.484855606092232 66.45731032533743 H 0.0 **** 0.06
19926 C 61.95053276071733 62.36180328010045 54.63553462244289 C 0.0 **** -0.24
19927 H 61.728262781560765 61.9516841206572 53.65061041367744 H 0.0 **** 0.06
19928 H 62.27907374358437 63.39523837540731 54.532437443205026 H 0.0 **** 0.06
19929 H 62.74043191856048 61.77379509457244 55.10405799072208 H 0.0 **** 0.06
19930 H 61.05452673723095 62.32407586241913 55.254688245633076 H 0.0 **** 0.06
19931 C 52.12655114269754 18.09529168797107 98.68950146824534 C 0.0 **** -0.24
19932 H 51.897564024080594 18.616929891176824 97.76063343091889 H 0.0 **** 0.06
19933 H 51.45780976431979 17.241554010890866 98.80149417757085 H 0.0 **** 0.06
19934 H 51.992062141543386 18.775658990677755 99.53103250851848 H 0.0 **** 0.06
19935 H 53.15903970736403 17.74683580079926 98.66578979714157 H 0.0 **** 0.06
19936 C 95.71595234067166 13.108238802830101 22.3546205137464 C 0.0 **** -0.24
19937 H 96.27462825639466 13.038933906712742 23.287589644948028 H 0.0 **** 0.06
19938 H 95.6407384347873 14.154336921370515 22.053666824019512 H 0.0 **** 0.06
19939 H 94.71583838426236 12.698220180650424 22.498833038293554 H 0.0 **** 0.06
19940 H 96.23235495589 12.543177356376788 21.578448298424554 H 0.0 **** 0.06
19941 C 92.75913526611623 49.55085580570099 40.17501848694653 C 0.0 **** -0.24
19942 H 92.65565731654826 48.90781794770004 39.300929232644876 H 0.0 **** 0.06
19943 H 91.80055468728895 50.023311696634366 40.39364418539739 H 0.0 **** 0.06
19944 H 93.50588607872197 50.31896949291233 39.974088221042166 H 0.0 **** 0.06
19945 H 93.0738638975084 48.95275482108756 41.03025441722508 H 0.0 **** 0.06
19946 C 22.700419054735416 5.668340945554386 13.931773437324992 C 0.0 **** -0.24
19947 H 23.497434229769283 4.990312930925354 14.236721306813124 H 0.0 **** 0.06
19948 H 23.107073444896844 6.672547996995505 13.807769988113222 H 0.0 **** 0.06
19949 H 21.922762929083426 5.681384916162582 14.69477745932366 H 0.0 **** 0.06
19950 H 22.276998141413564 5.328744886454903 12.986362069642269 H 0.0 **** 0.06
19951 C 106.37998346054496 108.27189386905746 53.965340420907125 C 0.0 **** -0.24
19952 H 105.82098261639936 108.20924008881025 53.03172971723103 H 0.0 **** 0.06
19953 H 105.69200445637517 108.46751325807844 54.78779669894243 H 0.0 **** 0.06
19954 H 107.10770440086384 109.08046235737606 53.89928286285931 H 0.0 **** 0.06
19955 H 106.89898151549261 107.329918355514 54.141693822085585 H 0.0 **** 0.06
19956 C 78.61440655552406 105.88405039862334 64.87624058553334 C 0.0 **** -0.24
19957 H 79.1438762597005 106.54942625967485 65.55921588955758 H 0.0 **** 0.06
19958 H 78.89778054636156 104.85157377052147 65.08314066033964 H 0.0 **** 0.06
19959 H 78.87759267356284 106.13455259638818 63.84796670298777 H 0.0 **** 0.06
19960 H 77.54034050795997 106.00168158074464 65.01491769193171 H 0.0 **** 0.06
19961 C 88.44846354264274 21.298566178175548 77.43884446826829 C 0.0 **** -0.24
19962 H 89.07810019224519 20.944242588927978 78.25473039659076 H 0.0 **** 0.06
19963 H 87.6481621982661 21.9192524972362 77.84049055839378 H 0.0 **** 0.06
19964 H 88.01928203885888 20.444879068995377 76.91507457473585 H 0.0 **** 0.06
19965 H 89.05071517700463 21.885437165326536 76.74517537256534 H 0.0 **** 0.06
19966 C 104.81109872941121 37.94187704295078 52.749476915361214 C 0.0 **** -0.24
19967 H 104.26744009663474 37.41262243221422 51.96559276969171 H 0.0 **** 0.06
19968 H 105.81889567452362 38.16857811857861 52.40204590091062 H 0.0 **** 0.06
19969 H 104.8641913176115 37.315944560826296 53.64044386947094 H 0.0 **** 0.06
19970 H 104.29082165626906 38.86948308928109 52.98783834564338 H 0.0 **** 0.06
19971 C 88.63988389478772 109.36564325270649 4.642605973939055 C 0.0 **** -0.24
19972 H 89.22533530744741 108.4880100672131 4.36875926828796 H 0.0 **** 0.06
19973 H 88.28573760791818 109.86200815696242 3.7394024259685636 H 0.0 **** 0.06
19974 H 89.26235475035142 110.05305454724365 5.216116376721857 H 0.0 **** 0.06
19975 H 87.7866277472796 109.05830563620108 5.24669610597968 H 0.0 **** 0.06
19976 C 110.52520704056226 11.054540242978916 94.21214553802301 C 0.0 **** -0.24
19977 H 111.52243015653357 11.294296602090157 93.84410302055912 H 0.0 **** 0.06
19978 H 110.5688392532486 10.14483763689816 94.81198789616903 H 0.0 **** 0.06
19979 H 109.85332962132111 10.900852189928145 93.36792809853267 H 0.0 **** 0.06
19980 H 110.15634690853378 11.876765692474379 94.82460031388104 H 0.0 **** 0.06
19981 C 89.34482222156356 38.597212007517555 31.919200174298993 C 0.0 **** -0.24
19982 H 89.19999151972945 38.19202678701464 32.920771642339815 H 0.0 **** 0.06
19983 H 88.4064214554611 39.019452306061 31.559958594297314 H 0.0 **** 0.06
19984 H 89.6662483990525 37.800425011408606 31.24774493533417 H 0.0 **** 0.06
19985 H 90.10704546208763 39.375897029160626 31.949179597267644 H 0.0 **** 0.06
19986 C 0.6798819477302231 84.83268005979133 38.260784448551306 C 0.0 **** -0.24
19987 H 1.7489606665203041 84.6264654859055 38.21303917325457 H 0.0 **** 0.06
19988 H 0.2550533782570312 84.77910787165246 37.25801720653084 H 0.0 **** 0.06
19989 H 0.5202964257603071 85.82901109201924 38.671672828767214 H 0.0 **** 0.06
19990 H 0.19631381640112977 84.09394541728298 38.90042607820976 H 0.0 **** 0.06
19991 C 65.93055061503784 44.40902707925267 21.911455565767472 C 0.0 **** -0.24
19992 H 65.43087014780323 43.988133944644915 21.03876959293139 H 0.0 **** 0.06
19993 H 65.97333919955145 45.49456664033204 21.815619965314255 H 0.0 **** 0.06
19994 H 66.94196362643271 44.00991703012653 21.979214011381575 H 0.0 **** 0.06
19995 H 65.3737189604347 44.1455557509575 22.8110364640622 H 0.0 **** 0.06
19996 C 9.666170598911947 104.51996784780158 62.566733407939786 C 0.0 **** -0.24
19997 H 8.604143264608524 104.76257630030585 62.53211460451271 H 0.0 **** 0.06
19998 H 9.859112829080857 103.64688611348186 61.942664485960954 H 0.0 **** 0.06
19999 H 9.955001572437652 104.30305854244463 63.595306900998885 H 0.0 **** 0.06
20000 H 10.244403719356171 105.36599853006288 62.19714464427421 H 0.0 **** 0.06
20001 C 60.25377146661117 38.07827127419307 103.76784501470942 C 0.0 **** -0.24
20002 H 60.117904320532574 37.0086118628779 103.60660828832539 H 0.0 **** 0.06
20003 H 61.316686908362726 38.299172186801286 103.85889374149232 H 0.0 **** 0.06
20004 H 59.74128721924919 38.3746630863854 104.6833739396547 H 0.0 **** 0.06
20005 H 59.83765701473391 38.62860501315106 102.92407376561431 H 0.0 **** 0.06
20006 C 13.11019942279708 87.12036838972955 4.866896981091898 C 0.0 **** -0.24
20007 H 13.486558038365715 87.60408990675165 3.9650294038270353 H 0.0 **** 0.06
20008 H 13.487631077291752 87.64470240559882 5.745266277964003 H 0.0 **** 0.06
20009 H 13.44650253362542 86.08297871302926 4.889220979803559 H 0.0 **** 0.06
20010 H 12.020253830750221 87.14921306996945 4.866752666049658 H 0.0 **** 0.06
20011 C 87.5761704620814 41.0010698914582 1.3842448695419876 C 0.0 **** -0.24
20012 H 88.5839688021062 41.406069011815674 1.2964578115609129 H 0.0 **** 0.06
20013 H 87.40977352332419 40.26744603441358 0.5958810921306963 H 0.0 **** 0.06
20014 H 86.85067429479062 41.80882989063272 1.2897172807105903 H 0.0 **** 0.06
20015 H 87.46116043160868 40.52194690091642 2.3560180875971923 H 0.0 **** 0.06
20016 C 2.483808050952806 35.392661023849655 89.08759268926099 C 0.0 **** -0.24
20017 H 2.452155122143651 36.47876584956225 89.18437541792204 H 0.0 **** 0.06
20018 H 1.5843043757977595 35.047412866985496 88.57722588337478 H 0.0 **** 0.06
20019 H 2.537011224914476 34.94137208418573 90.07807594179323 H 0.0 **** 0.06
20020 H 3.363207030970143 35.10588174464266 88.51032541190972 H 0.0 **** 0.06
20021 C 0.9742311584301859 96.49018118248964 73.25691422217918 C 0.0 **** -0.24
20022 H 2.0507908077162256 96.39185696455306 73.1191861136399 H 0.0 **** 0.06
20023 H 0.4819803745816529 96.48876618984957 72.28435493969596 H 0.0 **** 0.06
20024 H 0.758387618528559 97.42524481470025 73.77313115386318 H 0.0 **** 0.06
20025 H 0.6063752731845966 95.65361131594125 73.85242609623683 H 0.0 **** 0.06
20026 C 18.32374709082461 13.892612139889877 63.954081943238045 C 0.0 **** -0.24
20027 H 17.614360514304195 14.550387404574394 63.451501802775645 H 0.0 **** 0.06
20028 H 17.80621412810609 13.320039179884077 64.72367678429754 H 0.0 **** 0.06
20029 H 19.11081077705765 14.491653094925653 64.41244325857545 H 0.0 **** 0.06
20030 H 18.764044952212885 13.210508336933515 63.22664975029692 H 0.0 **** 0.06
20031 C 52.065897692770704 8.329056831445598 28.989136811481586 C 0.0 **** -0.24
20032 H 51.7225533104924 8.854320468182664 28.097867413720735 H 0.0 **** 0.06
20033 H 51.32004013014114 7.591312790566803 29.285568313419788 H 0.0 **** 0.06
20034 H 52.21302844035813 9.044094796015543 29.798436898086663 H 0.0 **** 0.06
20035 H 53.00800574851951 7.825895887006965 28.772300824260356 H 0.0 **** 0.06
20036 C 83.12682756912588 54.176909832012036 80.37620332658847 C 0.0 **** -0.24
20037 H 83.54567038053597 54.59431425182066 79.46157742971258 H 0.0 **** 0.06
20038 H 82.08445619192375 53.90496834401968 80.2075344904826 H 0.0 **** 0.06
20039 H 83.1843951464515 54.91799384045144 81.1744313304072 H 0.0 **** 0.06
20040 H 83.69235751714487 53.29053964924806 80.66260537382956 H 0.0 **** 0.06
20041 C 107.07426455399248 57.461970665130835 70.65312424239517 C 0.0 **** -0.24
20042 H 106.28527062274154 57.03645318819862 71.27415556884353 H 0.0 **** 0.06
20043 H 107.68692119883158 58.13309573565986 71.25477891468509 H 0.0 **** 0.06
20044 H 106.62738633138825 58.01830175897157 69.82936217718844 H 0.0 **** 0.06
20045 H 107.69514286781373 56.66024023424457 70.25490350739315 H 0.0 **** 0.06
20046 C 93.66370919666554 72.76024711398668 51.606565063833386 C 0.0 **** -0.24
20047 H 93.98663559182575 73.55631480938848 52.27917214674153 H 0.0 **** 0.06
20048 H 94.538131203673 72.27802314661676 51.16984137989121 H 0.0 **** 0.06
20049 H 93.04716415768394 73.18361345091239 50.81420498264916 H 0.0 **** 0.06
20050 H 93.08419996047047 72.02611609364908 52.16545953096025 H 0.0 **** 0.06
20051 C 65.88876709262547 6.841889371090133 65.14630071998579 C 0.0 **** -0.24
20052 H 66.85591258092248 6.567479622764424 64.72544532143675 H 0.0 **** 0.06
20053 H 65.53870347896219 6.044604533952366 65.8029983837005 H 0.0 **** 0.06
20054 H 65.17061443995371 6.989642374957867 64.3397920697411 H 0.0 **** 0.06
20055 H 65.99004728469106 7.764443630556784 65.71678935095673 H 0.0 **** 0.06
20056 C 58.15605266900229 45.8274839781466 53.98303115919488 C 0.0 **** -0.24
20057 H 58.082968786664026 46.129989658135656 55.02819407118702 H 0.0 **** 0.06
20058 H 57.99802755247259 46.6955649400596 53.3423760684271 H 0.0 **** 0.06
20059 H 57.39701499761094 45.07558135645863 53.76889893874444 H 0.0 **** 0.06
20060 H 59.14502845186797 45.410681289896274 53.79295538565682 H 0.0 **** 0.06
20061 C 83.22867100643381 88.55087240688977 17.103243195416525 C 0.0 **** -0.24
20062 H 84.07248348869851 88.95967070939076 17.65892369875735 H 0.0 **** 0.06
20063 H 82.68960927514473 89.36129843808934 16.61288366192926 H 0.0 **** 0.06
20064 H 82.55848023681892 88.03301922472829 17.790334804025463 H 0.0 **** 0.06
20065 H 83.59297279898695 87.8494505470818 16.352754715098058 H 0.0 **** 0.06
20066 C 38.44394132149071 61.406293490396784 93.81872238695973 C 0.0 **** -0.24
20067 H 38.38059544978212 60.71154237183878 94.65571553215969 H 0.0 **** 0.06
20068 H 37.921394733419845 62.328952455378406 94.07228089734608 H 0.0 **** 0.06
20069 H 37.98383430372361 60.957499951586335 92.93789417966266 H 0.0 **** 0.06
20070 H 39.49078262674834 61.62778565904299 93.60803788398968 H 0.0 **** 0.06
20071 C 25.641116790068324 87.7157811864852 57.173372755375595 C 0.0 **** -0.24
20072 H 26.18729267008223 88.12030701263933 56.32109218728087 H 0.0 **** 0.06
20073 H 25.22349950215653 86.74404611113411 56.90851397269364 H 0.0 **** 0.06
20074 H 24.834593885514067 88.39684333355214 57.44387323879019 H 0.0 **** 0.06
20075 H 26.319835893737462 87.60216039548803 58.01883836655682 H 0.0 **** 0.06
20076 C 38.97953011534847 70.00137864819541 107.10968983201641 C 0.0 **** -0.24
20077 H 39.170634171941686 71.03400744507823 106.81805755467465 H 0.0 **** 0.06
20078 H 38.158513851960635 69.6020767610105 106.51352900298554 H 0.0 **** 0.06
20079 H 38.71408359613338 69.96540059871228 108.16537397446595 H 0.0 **** 0.06
20080 H 39.87598682553144 69.40430564238125 106.93987042390003 H 0.0 **** 0.06
20081 C 91.33185461529243 54.631645860609126 63.093793148539476 C 0.0 **** -0.24
20082 H 91.18055697111149 53.70563623131193 63.648140111513214 H 0.0 **** 0.06
20083 H 91.19902684205499 54.442899419068624 62.028287174945774 H 0.0 **** 0.06
20084 H 92.34067414971264 55.003259969975375 63.2735916262925 H 0.0 **** 0.06
20085 H 90.60584368558773 55.375239061796265 63.42412287725682 H 0.0 **** 0.06
20086 C 8.646028846832138 81.19264181522641 92.09540126089269 C 0.0 **** -0.24
20087 H 7.742946126904428 80.8909182962719 92.62533698386932 H 0.0 **** 0.06
20088 H 9.36402041312303 81.60334794260692 92.80534209175181 H 0.0 **** 0.06
20089 H 8.395388279652423 81.95024020184943 91.35257462785898 H 0.0 **** 0.06
20090 H 9.082363030609883 80.3256718030704 91.59765437467223 H 0.0 **** 0.06
20091 C 92.10707003440194 27.1990047918165 112.45427276580656 C 0.0 **** -0.24
20092 H 92.15291876113898 27.58716130315195 113.4714619169321 H 0.0 **** 0.06
20093 H 93.00277805092972 26.61258859227268 112.24940309419341 H 0.0 **** 0.06
20094 H 92.04636802502861 28.029231958349968 111.75117500399367 H 0.0 **** 0.06
20095 H 91.22592246305254 26.566129093291707 112.34707334034906 H 0.0 **** 0.06
20096 C 23.869672979444672 74.79691714105186 7.569185796948007 C 0.0 **** -0.24
20097 H 23.317275247741378 75.72966196761135 7.4550620542047685 H 0.0 **** 0.06
20098 H 24.749743026362168 74.81539949532501 6.9264366246418145 H 0.0 **** 0.06
20099 H 23.23068293006395 73.95987530784816 7.289425139367664 H 0.0 **** 0.06
20100 H 24.18061253242452 74.68517582497259 8.608443188584873 H 0.0 **** 0.06
20101 C 39.50111019025929 51.25768839286093 72.97820621961623 C 0.0 **** -0.24
20102 H 38.431339253908654 51.05038716983256 73.01704925217368 H 0.0 **** 0.06
20103 H 39.66328426526175 52.2515363980597 72.55966450776182 H 0.0 **** 0.06
20104 H 39.99230836431902 50.51382592650157 72.35123385029527 H 0.0 **** 0.06
20105 H 39.91527487300334 51.21520186850569 73.9858623786736 H 0.0 **** 0.06
20106 C 63.66591554055174 69.03907242017567 42.41879864223853 C 0.0 **** -0.24
20107 H 64.60325308671906 69.40039231743808 42.84146118941274 H 0.0 **** 0.06
20108 H 63.847170915015454 68.11184607809096 41.874564107625616 H 0.0 **** 0.06
20109 H 63.26277110783673 69.7872465288601 41.737192898704066 H 0.0 **** 0.06
20110 H 62.95154276020753 68.85636707056679 43.221169280990324 H 0.0 **** 0.06
20111 C 3.013094825411315 12.866875628223767 68.8890384430353 C 0.0 **** -0.24
20112 H 3.0596367121312085 11.77928386279558 68.8292101674935 H 0.0 **** 0.06
20113 H 2.566793196692089 13.261257529418089 67.97519258061237 H 0.0 **** 0.06
20114 H 4.021107999732891 13.266844666313972 69.00273386573627 H 0.0 **** 0.06
20115 H 2.4064882226893474 13.158238164572921 69.74623134174948 H 0.0 **** 0.06
20116 C 17.560683186773943 48.61907513868501 46.310447868565035 C 0.0 **** -0.24
20117 H 16.765284573971126 48.17690391301552 45.71162655333495 H 0.0 **** 0.06
20118 H 18.38504477433733 48.91162305058493 45.66044782503193 H 0.0 **** 0.06
20119 H 17.913299207241575 47.89086585555548 47.0408132356179 H 0.0 **** 0.06
20120 H 17.177936557521594 49.49818535299785 46.83031970212651 H 0.0 **** 0.06
20121 C 61.94332145904314 34.544580573004225 78.49882768664614 C 0.0 **** -0.24
20122 H 61.64227934851112 33.95893403042433 79.36780651278772 H 0.0 **** 0.06
20123 H 63.02586510617122 34.488152897208636 78.38049926664962 H 0.0 **** 0.06
20124 H 61.64670558819933 35.58405533076032 78.63989029336213 H 0.0 **** 0.06
20125 H 61.45922714140578 34.14564362410772 77.60699898397849 H 0.0 **** 0.06
20126 C 49.45838465627921 3.4951783264107803 53.62791642815731 C 0.0 **** -0.24
20127 H 49.811328332682194 3.414036248841626 52.59936250663359 H 0.0 **** 0.06
20128 H 48.53124833009187 2.9318891961529516 53.73871370996087 H 0.0 **** 0.06
20129 H 49.27938407440803 4.5427682665956866 53.86852286507509 H 0.0 **** 0.06
20130 H 50.21220087626628 3.090463214316884 54.30238518827062 H 0.0 **** 0.06
20131 C 3.731025367727426 94.28254930208428 44.66943769521595 C 0.0 **** -0.24
20132 H 4.064994527845087 93.46739205078438 44.026516458184176 H 0.0 **** 0.06
20133 H 3.504679540035724 93.89397384907522 45.662035316421964 H 0.0 **** 0.06
20134 H 2.8367989892329177 94.73766839389486 44.24359360775844 H 0.0 **** 0.06
20135 H 4.519474421004276 95.03197451672335 44.743169392220636 H 0.0 **** 0.06
20136 C 110.21854757489318 58.20461191896442 27.59189556754879 C 0.0 **** -0.24
20137 H 110.73161312430653 57.26625129416141 27.80452086832699 H 0.0 **** 0.06
20138 H 110.93281175538894 59.027028966000216 27.633202700601572 H 0.0 **** 0.06
20139 H 109.43510205848757 58.364980824734346 28.33286746421902 H 0.0 **** 0.06
20140 H 109.77396183079716 58.158356104949064 26.597387977113982 H 0.0 **** 0.06
20141 C 74.00522820449956 92.97582271828747 23.374113324827988 C 0.0 **** -0.24
20142 H 74.49035389835785 93.6828025752354 22.702159567062836 H 0.0 **** 0.06
20143 H 72.92283869832104 93.05971688903651 23.270045124410956 H 0.0 **** 0.06
20144 H 74.28977021913846 93.19892295578327 24.40240050076585 H 0.0 **** 0.06
20145 H 74.3170693828794 91.96255716101959 23.123160514361814 H 0.0 **** 0.06
20146 C 102.36392608970425 83.72620002862416 5.43134369925842 C 0.0 **** -0.24
20147 H 103.06391666013218 83.23684004981683 6.108396421300071 H 0.0 **** 0.06
20148 H 101.54949401175543 83.0411374389692 5.192347630986134 H 0.0 **** 0.06
20149 H 102.88213506969663 84.00987412527621 4.515420755088016 H 0.0 **** 0.06
20150 H 101.95923682630686 84.61815303082278 5.910513690133939 H 0.0 **** 0.06
20151 C 93.38225130614461 26.711262488563705 78.48420684906654 C 0.0 **** -0.24
20152 H 94.12302360259446 26.19056303946857 77.87751263486768 H 0.0 **** 0.06
20153 H 93.49942259530425 26.419731974979243 79.52842057001135 H 0.0 **** 0.06
20154 H 92.38165723472116 26.44686251175679 78.14266252381248 H 0.0 **** 0.06
20155 H 93.52685807014996 27.787163079563214 78.38903248593147 H 0.0 **** 0.06
20156 C 110.60624883766293 20.306130858358415 60.01389131468907 C 0.0 **** -0.24
20157 H 110.40077296265893 20.717092661348545 61.002078252368655 H 0.0 **** 0.06
20158 H 110.8738801335887 21.11401136425019 59.333559841638326 H 0.0 **** 0.06
20159 H 109.71859791016296 19.794463216199887 59.64130243940581 H 0.0 **** 0.06
20160 H 111.43284983460168 19.597442537091723 60.08074302531681 H 0.0 **** 0.06
20161 C 5.0096412023624595 39.63591775297341 9.570179133020659 C 0.0 **** -0.24
20162 H 4.490914476193112 40.06192626970243 8.710667186579016 H 0.0 **** 0.06
20163 H 5.888337890088479 40.23943852987236 9.798851874769213 H 0.0 **** 0.06
20164 H 5.317979334989602 38.61668388265058 9.339122305400224 H 0.0 **** 0.06
20165 H 4.339806165553057 39.62794894437295 10.430573207455211 H 0.0 **** 0.06
20166 C 36.51618537392301 87.05629864150637 88.60242913015878 C 0.0 **** -0.24
20167 H 37.463658617966814 86.9249343544063 89.12643804950898 H 0.0 **** 0.06
20168 H 36.010583897794504 87.94344435047626 88.98325980753884 H 0.0 **** 0.06
20169 H 35.88755219037756 86.18002755173154 88.76531181870342 H 0.0 **** 0.06
20170 H 36.7046330842432 87.17418192018127 87.53530993081051 H 0.0 **** 0.06
20171 C 69.62761714875575 27.8987941329642 95.62659230717358 C 0.0 **** -0.24
20172 H 69.38850626810157 27.395131734864037 96.56411439296 H 0.0 **** 0.06
20173 H 68.78002768801105 27.8187091418815 94.94549251648408 H 0.0 **** 0.06
20174 H 70.50305222071458 27.430848054317394 95.17613331718562 H 0.0 **** 0.06
20175 H 69.83822218549926 28.950373797953517 95.82298516038742 H 0.0 **** 0.06
20176 C 50.715088806638995 103.41825026592485 43.84998894380573 C 0.0 **** -0.24
20177 H 49.88783080972913 102.80266928990142 43.4990835956537 H 0.0 **** 0.06
20178 H 51.618537383827004 102.81045749021365 43.91377836699996 H 0.0 **** 0.06
20179 H 50.476925650167 103.81913555765627 44.834836973277106 H 0.0 **** 0.06
20180 H 50.877702768416704 104.23960203912375 43.152801523686094 H 0.0 **** 0.06
20181 C 88.54484411306561 30.889619379265184 5.810287500151929 C 0.0 **** -0.24
20182 H 89.21356642415492 30.4266225201167 5.084780258136931 H 0.0 **** 0.06
20183 H 87.64512905896845 31.238934332019383 5.3036670516099775 H 0.0 **** 0.06
20184 H 89.04870023904493 31.733872522860338 6.280374721816003 H 0.0 **** 0.06
20185 H 88.27389995306197 30.15849264677977 6.571323831700269 H 0.0 **** 0.06
20186 C 11.761723953634736 26.054441437086552 100.19892110297258 C 0.0 **** -0.24
20187 H 12.83566165298668 26.216572701143434 100.1166741341446 H 0.0 **** 0.06
20188 H 11.350253116741982 26.725021223882806 100.9545638732069 H 0.0 **** 0.06
20189 H 11.571226822086729 25.02111779208863 100.48688709593404 H 0.0 **** 0.06
20190 H 11.288590063391204 26.25667518934395 99.23768894778868 H 0.0 **** 0.06
20191 C 106.4546843193088 86.35068593535291 71.57801410679525 C 0.0 **** -0.24
20192 H 105.56906560665513 85.84280590377892 71.19599478184034 H 0.0 **** 0.06
20193 H 106.23121487078492 87.40685079035975 71.72706969413196 H 0.0 **** 0.06
20194 H 107.26910304604945 86.24962622861176 70.85994619900649 H 0.0 **** 0.06
20195 H 106.74937930776395 85.90300772906036 72.52663859679637 H 0.0 **** 0.06
20196 C 91.97960035872023 0.14075528776746182 78.03336275573815 C 0.0 **** -0.24
20197 H 91.72458706112721 -0.8294071920732478 78.45777443362172 H 0.0 **** 0.06
20198 H 92.89839637023135 0.5080032010166917 78.49169812131643 H 0.0 **** 0.06
20199 H 91.1704472538606 0.8454503446054957 78.22511394580715 H 0.0 **** 0.06
20200 H 92.12603308617471 0.03979242420977869 76.95738021946676 H 0.0 **** 0.06
20201 C 54.01152490569882 4.823424947755029 44.018286618817285 C 0.0 **** -0.24
20202 H 54.127042454209146 4.759633497084479 45.09946774981813 H 0.0 **** 0.06
20203 H 53.4895842977962 3.9367810559746204 43.6559510014487 H 0.0 **** 0.06
20204 H 54.99501741558154 4.882902892827076 43.550549160201854 H 0.0 **** 0.06
20205 H 53.434643016726824 5.7134837265805345 43.765709729043465 H 0.0 **** 0.06
20206 C 16.022507393084823 60.156801886684484 1.9666306694174978 C 0.0 **** -0.24
20207 H 16.44418724109741 60.64428896193264 2.8447740297788755 H 0.0 **** 0.06
20208 H 15.561351665827004 59.21315455414602 2.2613485073089237 H 0.0 **** 0.06
20209 H 16.813999186245184 59.96420256661258 1.2423298779378342 H 0.0 **** 0.06
20210 H 15.269867443282095 60.80431441652946 1.5178345400361195 H 0.0 **** 0.06
20211 C 25.03524776327629 111.87126940518779 67.56280993062171 C 0.0 **** -0.24
20212 H 24.20971182101863 112.35936809534451 68.08067328785197 H 0.0 **** 0.06
20213 H 25.102805049988262 110.83167743992786 67.88465149656824 H 0.0 **** 0.06
20214 H 25.967130468579626 112.38577999698492 67.79944239243383 H 0.0 **** 0.06
20215 H 24.86217624979298 111.90867061031582 66.48683556017846 H 0.0 **** 0.06
20216 C 55.572942592307236 65.5627667472101 61.290254021955995 C 0.0 **** -0.24
20217 H 54.51802268331535 65.3387912574033 61.448264619095006 H 0.0 **** 0.06
20218 H 55.678546181921455 66.59876261577963 60.9648620158765 H 0.0 **** 0.06
20219 H 55.97429933101375 64.89823271243307 60.52594740547713 H 0.0 **** 0.06
20220 H 56.11838951024434 65.41742200928178 62.22225933815795 H 0.0 **** 0.06
20221 C 70.83214431022208 89.90072176490071 86.616355888144 C 0.0 **** -0.24
20222 H 70.2083601340783 89.08142750161636 86.97381442112419 H 0.0 **** 0.06
20223 H 70.76944168310033 90.73580308613876 87.31455714527314 H 0.0 **** 0.06
20224 H 70.4827425650902 90.22120771527403 85.63518081126361 H 0.0 **** 0.06
20225 H 71.86598743790765 89.56441881326546 86.54321865324602 H 0.0 **** 0.06
20226 C 76.99511290748063 63.15506504418548 100.91317589828935 C 0.0 **** -0.24
20227 H 77.33481098039695 63.84194682781222 101.68846747844421 H 0.0 **** 0.06
20228 H 76.4287565808066 62.34395791315103 101.36981368709522 H 0.0 **** 0.06
20229 H 77.85779253637608 62.74655442447536 100.3872440600974 H 0.0 **** 0.06
20230 H 76.3601589441688 63.69046682681295 100.20804702750769 H 0.0 **** 0.06
20231 C 103.30748672217845 88.37066423154855 72.3587570236017 C 0.0 **** -0.24
20232 H 102.85952856167958 87.64379836960009 71.68144108897152 H 0.0 **** 0.06
20233 H 103.64117239565849 87.86437145689015 73.26501081631267 H 0.0 **** 0.06
20234 H 102.56759563897344 89.12860315688451 72.6177612913117 H 0.0 **** 0.06
20235 H 104.15903203766356 88.84467411109978 71.87164046419002 H 0.0 **** 0.06
20236 C 40.57104955342953 24.720554471377767 9.75643790853255 C 0.0 **** -0.24
20237 H 41.1200315953721 25.57158080660227 9.352791640266362 H 0.0 **** 0.06
20238 H 39.848879878214944 24.370799188319182 9.019010917860609 H 0.0 **** 0.06
20239 H 40.04740445677402 25.02440185536622 10.662988505234427 H 0.0 **** 0.06
20240 H 41.2686656633758 23.916969354109227 9.992387291680135 H 0.0 **** 0.06
20241 C 31.98011133690312 50.379044682777135 2.506065624349219 C 0.0 **** -0.24
20242 H 32.757334903211984 49.61545845494038 2.519665119041264 H 0.0 **** 0.06
20243 H 31.978137335247112 50.912992455740664 3.4562425865901787 H 0.0 **** 0.06
20244 H 31.010050540406212 49.90782323946888 2.3505768996934364 H 0.0 **** 0.06
20245 H 32.176820647637925 51.08135173124276 1.69489625248481 H 0.0 **** 0.06
20246 C 52.38229524511135 49.65232224682915 45.34405813446939 C 0.0 **** -0.24
20247 H 51.311498375933695 49.7896600355352 45.19812420917117 H 0.0 **** 0.06
20248 H 52.67747851822136 50.090224932269265 46.29760386765116 H 0.0 **** 0.06
20249 H 52.92534555716543 50.140378697180815 44.535366851098445 H 0.0 **** 0.06
20250 H 52.61496055307853 48.58743492388586 45.34634610107912 H 0.0 **** 0.06
20251 C 31.621671514791387 91.25169143753979 89.67492118901873 C 0.0 **** -0.24
20252 H 31.603448632858317 92.20701976180132 90.19928566155625 H 0.0 **** 0.06
20253 H 30.71184887177958 90.69554261763241 89.9011658515459 H 0.0 **** 0.06
20254 H 32.48911220132351 90.67676573829416 89.99850651407269 H 0.0 **** 0.06
20255 H 31.681312131759 91.42768291310838 88.60062587694216 H 0.0 **** 0.06
20256 C 55.53944142606798 52.67405283053796 111.40049177514308 C 0.0 **** -0.24
20257 H 55.6852679162584 52.287594298233955 110.3915488360056 H 0.0 **** 0.06
20258 H 56.28445714102159 52.2378684086446 112.06669458407943 H 0.0 **** 0.06
20259 H 54.54127770148497 52.411636721143054 111.7492614443675 H 0.0 **** 0.06
20260 H 55.64898201057622 53.75898622726328 111.39343252820139 H 0.0 **** 0.06
20261 C 81.17350764978133 104.47571102337466 69.08039838212215 C 0.0 **** -0.24
20262 H 81.08196142704196 103.45980429012772 69.4640885740153 H 0.0 **** 0.06
20263 H 80.46794483964044 104.61951490474925 68.26078989233676 H 0.0 **** 0.06
20264 H 82.18858663437857 104.63695570666957 68.71815237626757 H 0.0 **** 0.06
20265 H 80.95415640557036 105.18613026791616 69.87685984695815 H 0.0 **** 0.06
20266 C 58.02393377673169 107.2337126336979 6.990337621623894 C 0.0 **** -0.24
20267 H 57.479209343985524 106.50432071645577 6.3904116727772475 H 0.0 **** 0.06
20268 H 58.52108917251551 107.94596170534876 6.332486489064422 H 0.0 **** 0.06
20269 H 58.768364773149194 106.71871537257809 7.598805196023875 H 0.0 **** 0.06
20270 H 57.32676106169957 107.76353432626323 7.640374264904608 H 0.0 **** 0.06
20271 C 57.3287062122285 91.4987172749415 101.4828704036428 C 0.0 **** -0.24
20272 H 57.49028126634465 92.1812915648766 100.64796784312878 H 0.0 **** 0.06
20273 H 58.247519236038556 90.94858687189216 101.68463146610188 H 0.0 **** 0.06
20274 H 56.53309208456568 90.79786966813873 101.22841367065399 H 0.0 **** 0.06
20275 H 57.04329445032147 92.06774355522577 102.3672739142207 H 0.0 **** 0.06
20276 C 42.09679668365828 39.215627371825036 41.25271118898497 C 0.0 **** -0.24
20277 H 41.29891128366734 38.623080157071485 41.70071799229114 H 0.0 **** 0.06
20278 H 42.55429374956708 38.652127650272774 40.439834285669505 H 0.0 **** 0.06
20279 H 42.849726457577106 39.43924886374816 42.00840859345774 H 0.0 **** 0.06
20280 H 41.683541569055194 40.14611718613364 40.86428066815387 H 0.0 **** 0.06
20281 C 73.09367468731205 28.646261344257084 24.41894780563561 C 0.0 **** -0.24
20282 H 72.48440605351558 29.347494249187804 23.847655758488827 H 0.0 **** 0.06
20283 H 72.46403019475841 27.839368255776435 24.793898132012288 H 0.0 **** 0.06
20284 H 73.55509049935876 29.166788627633423 25.257673112631835 H 0.0 **** 0.06
20285 H 73.87034895684405 28.232432603159282 23.77606972785091 H 0.0 **** 0.06
20286 C 31.04186528734602 35.57681353082211 29.206078222778842 C 0.0 **** -0.24
20287 H 30.708005218097554 35.81607936178955 28.196548286462303 H 0.0 **** 0.06
20288 H 31.36278378639392 36.489220727497354 29.709105893367223 H 0.0 **** 0.06
20289 H 31.876135968343128 34.87579447648898 29.1565887585586 H 0.0 **** 0.06
20290 H 30.22048417766517 35.12443543070964 29.761912304213126 H 0.0 **** 0.06
20291 C 38.821045924109626 53.83624643739557 42.528877064824684 C 0.0 **** -0.24
20292 H 39.69028392326959 54.42984508832782 42.81327181250953 H 0.0 **** 0.06
20293 H 38.43722267465131 53.31181229114674 43.40473607590161 H 0.0 **** 0.06
20294 H 39.10980144996455 53.11169148423602 41.76731631938409 H 0.0 **** 0.06
20295 H 38.04731340394642 54.49366941224446 42.13100714953907 H 0.0 **** 0.06
20296 C 63.56548131237602 83.76326821088753 36.468356382407705 C 0.0 **** -0.24
20297 H 62.59617027262448 83.58398065305437 36.002819608095194 H 0.0 **** 0.06
20298 H 63.88530818604323 84.78417374029718 36.25978012024592 H 0.0 **** 0.06
20299 H 64.29656938433112 83.06268016469627 36.0673278312874 H 0.0 **** 0.06
20300 H 63.48106626108128 83.6227673669411 37.54591009113648 H 0.0 **** 0.06
20301 C 49.861146870316446 53.814603188914425 16.827801739404578 C 0.0 **** -0.24
20302 H 49.33611888710544 52.95968038703282 17.254691711102367 H 0.0 **** 0.06
20303 H 50.306139512278776 54.403941518190344 17.62936412442508 H 0.0 **** 0.06
20304 H 49.15651793473603 54.431358885761256 16.269693435690726 H 0.0 **** 0.06
20305 H 50.64465759393937 53.46131459976053 16.15788945157729 H 0.0 **** 0.06
20306 C 71.76628010377456 95.1313867356507 32.580427683731784 C 0.0 **** -0.24
20307 H 71.14224744913304 95.70263697003963 31.893971755901646 H 0.0 **** 0.06
20308 H 72.81679601017728 95.33945606670846 32.37512808348015 H 0.0 **** 0.06
20309 H 71.5726496286976 94.06785549446337 32.447492272640886 H 0.0 **** 0.06
20310 H 71.53331427136558 95.41756475555198 33.6061773923131 H 0.0 **** 0.06
20311 C 24.75372709935033 15.04428022724889 8.65356104399352 C 0.0 **** -0.24
20312 H 25.258277695505633 14.224077419080459 8.143305799783889 H 0.0 **** 0.06
20313 H 25.3124516327154 15.967923771618644 8.498599898599423 H 0.0 **** 0.06
20314 H 24.696754405999634 14.828370327392449 9.720826457721259 H 0.0 **** 0.06
20315 H 23.74609649684104 15.15693923865301 8.251959284281156 H 0.0 **** 0.06
20316 C 106.08356673437433 1.3668142972717998 76.44544834577025 C 0.0 **** -0.24
20317 H 105.37620471740223 0.9930021584278164 75.7043249263231 H 0.0 **** 0.06
20318 H 106.8350869953638 0.6035008674386013 76.64835306011551 H 0.0 **** 0.06
20319 H 105.55087585602209 1.6068729029970719 77.36557696678452 H 0.0 **** 0.06
20320 H 106.56989081468805 2.2640109165254483 76.06248685070193 H 0.0 **** 0.06
20321 C 5.002761588075543 104.12043667220115 76.7740034739424 C 0.0 **** -0.24
20322 H 5.621482737358633 103.58041560799376 77.49082059747113 H 0.0 **** 0.06
20323 H 4.1435424629773365 103.50780095298742 76.50128869280027 H 0.0 **** 0.06
20324 H 5.589375857446498 104.34198756337315 75.88195171547423 H 0.0 **** 0.06
20325 H 4.65773637155138 105.05280048797354 77.22147607822549 H 0.0 **** 0.06
20326 C 38.34950612528433 7.929784185024683 60.591765650925396 C 0.0 **** -0.24
20327 H 39.12623337910482 8.081767936487031 59.8415842308128 H 0.0 **** 0.06
20328 H 37.63993644778996 8.757398877192234 60.551837050996085 H 0.0 **** 0.06
20329 H 38.80382833137208 7.888453108592776 61.58145723760205 H 0.0 **** 0.06
20330 H 37.82849292897593 6.993898568463223 60.39073149518845 H 0.0 **** 0.06
20331 C 8.28791010013174 25.246137521165565 80.77141990838629 C 0.0 **** -0.24
20332 H 7.430528644699294 25.908343079228388 80.88834801640735 H 0.0 **** 0.06
20333 H 8.579240636307375 24.85344662727249 81.74527499748473 H 0.0 **** 0.06
20334 H 9.12012089213816 25.80243022888814 80.3401937444539 H 0.0 **** 0.06
20335 H 8.022031088163686 24.420952656786284 80.11113235597236 H 0.0 **** 0.06
20336 C 95.22192181648117 27.911176526450447 9.480419810002337 C 0.0 **** -0.24
20337 H 94.26506514617955 28.360358815599227 9.21550295455667 H 0.0 **** 0.06
20338 H 95.08820081840281 27.24684882303893 10.334023800545019 H 0.0 **** 0.06
20339 H 95.93171566547093 28.696379936723076 9.737934090419895 H 0.0 **** 0.06
20340 H 95.6024639238143 27.3416367562711 8.63183651338026 H 0.0 **** 0.06
20341 C 13.111076260523518 106.18244993868782 42.115693041179654 C 0.0 **** -0.24
20342 H 13.078678541168554 105.14850071983193 42.457126357470045 H 0.0 **** 0.06
20343 H 12.68488113459243 106.83180762695531 42.88076671594456 H 0.0 **** 0.06
20344 H 12.535848331066031 106.27887802737223 41.19423120842072 H 0.0 **** 0.06
20345 H 14.145791448766364 106.47065868502489 41.92916526959209 H 0.0 **** 0.06
20346 C 48.295134705736785 30.47110803104482 42.80000872549856 C 0.0 **** -0.24
20347 H 48.876996356428975 31.00211085574574 42.04646149808282 H 0.0 **** 0.06
20348 H 47.80803926916326 29.609642222315728 42.342136321317206 H 0.0 **** 0.06
20349 H 47.53865632528931 31.140585710065494 43.21209198164597 H 0.0 **** 0.06
20350 H 48.95580227557542 30.134190756077004 43.59863096667708 H 0.0 **** 0.06
20351 C 110.76469113028777 9.82815382233791 29.702259399516862 C 0.0 **** -0.24
20352 H 110.29071637433968 8.856048392986935 29.8382901206256 H 0.0 **** 0.06
20353 H 111.7956006933526 9.686431473203768 29.37585977997975 H 0.0 **** 0.06
20354 H 110.753503818728 10.372709015732937 30.645657403325714 H 0.0 **** 0.06
20355 H 110.21941871886682 10.39563030006417 28.948489672575278 H 0.0 **** 0.06
20356 C 68.0982342379254 34.530064414645324 1.698496116083973 C 0.0 **** -0.24
20357 H 67.9915747675496 34.932776350709105 0.6909127290056034 H 0.0 **** 0.06
20358 H 69.11572681690092 34.16362174864173 1.8369773444236586 H 0.0 **** 0.06
20359 H 67.39488630302293 33.708629856670484 1.8370867751553988 H 0.0 **** 0.06
20360 H 67.89079415921938 35.31390478196204 2.427206828293194 H 0.0 **** 0.06
20361 C 93.95557649825412 44.114172592355544 71.46626026095043 C 0.0 **** -0.24
20362 H 93.25895291986066 44.29345323364248 72.28602761057283 H 0.0 **** 0.06
20363 H 94.95535046434534 43.95122912256079 71.86942258865349 H 0.0 **** 0.06
20364 H 93.96665865224796 44.979750116881974 70.80406307701315 H 0.0 **** 0.06
20365 H 93.63960937911776 43.23307782961615 70.90823323877206 H 0.0 **** 0.06
20366 C 82.60783203680069 10.312097808486527 23.83629466514455 C 0.0 **** -0.24
20367 H 83.39062100856572 10.837908447111516 24.38278434980046 H 0.0 **** 0.06
20368 H 82.11844317938693 11.002693594617028 23.148770517596887 H 0.0 **** 0.06
20369 H 81.87417232678291 9.919683070440428 24.540557045421963 H 0.0 **** 0.06
20370 H 83.04786641872701 9.489452244051094 23.273437351377822 H 0.0 **** 0.06
20371 C 66.52678006986733 46.04429833461201 47.279020660294265 C 0.0 **** -0.24
20372 H 66.5873233600785 45.976268564681845 48.36488060036024 H 0.0 **** 0.06
20373 H 66.22977733464563 45.0786286476672 46.87004411532968 H 0.0 **** 0.06
20374 H 67.50182889416786 46.32395365490228 46.87905550309972 H 0.0 **** 0.06
20375 H 65.79033998750492 46.79895475199385 47.0021793545657 H 0.0 **** 0.06
20376 C 105.23632270202148 41.877609839984075 68.2833410818175 C 0.0 **** -0.24
20377 H 104.86142616798315 42.402504925260956 67.40516223889585 H 0.0 **** 0.06
20378 H 105.19310171876583 40.80201869608143 68.1094759674233 H 0.0 **** 0.06
20379 H 104.62193067125673 42.13026849744625 69.14787706198439 H 0.0 **** 0.06
20380 H 106.26796504119164 42.174504320709985 68.47181954945393 H 0.0 **** 0.06
20381 C 40.23653806661835 99.9644012719751 61.8352115380551 C 0.0 **** -0.24
20382 H 40.05787908714231 99.4204238272554 60.907533298440775 H 0.0 **** 0.06
20383 H 40.24893123466032 101.03577057194317 61.63107993770728 H 0.0 **** 0.06
20384 H 41.196102552012036 99.66288518770645 62.25453647811732 H 0.0 **** 0.06
20385 H 39.441314226858 99.73895978090528 62.546645047819005 H 0.0 **** 0.06
20386 C 31.814484196592915 43.40841676487571 26.06097743764397 C 0.0 **** -0.24
20387 H 32.23621203450735 44.269911367383884 25.54231943560069 H 0.0 **** 0.06
20388 H 31.000195708799374 43.735870565128266 26.707403504739347 H 0.0 **** 0.06
20389 H 32.589128210823944 42.93282486912881 26.66295120761461 H 0.0 **** 0.06
20390 H 31.43366470296315 42.69544602578321 25.329173042500855 H 0.0 **** 0.06
20391 C 24.63287581175851 77.54206863753146 94.91783392363533 C 0.0 **** -0.24
20392 H 24.25575987064485 76.52541295938366 95.02808899493024 H 0.0 **** 0.06
20393 H 23.809367949329697 78.24803255519987 95.02682546327648 H 0.0 **** 0.06
20394 H 25.082288589439074 77.657447009939 93.93158782434605 H 0.0 **** 0.06
20395 H 25.38290850123728 77.73598581793098 95.68401956040611 H 0.0 **** 0.06
20396 C 5.787107590818664 107.26765984076707 32.85997349662222 C 0.0 **** -0.24
20397 H 5.141087098838199 106.46856453551618 33.22437113603118 H 0.0 **** 0.06
20398 H 5.173235064579529 108.0867037438921 32.48445381782716 H 0.0 **** 0.06
20399 H 6.417411944661211 106.88659264266528 32.05608815827679 H 0.0 **** 0.06
20400 H 6.4152059054156325 107.62712538577662 33.67476512079779 H 0.0 **** 0.06
20401 C 26.91295173521631 62.809748463099936 91.90592129186805 C 0.0 **** -0.24
20402 H 27.291985678051418 61.79452023027585 92.02827064604392 H 0.0 **** 0.06
20403 H 26.331808742201048 63.088721288754215 92.78552997749125 H 0.0 **** 0.06
20404 H 26.277802832178594 62.85583495271024 91.02168984225159 H 0.0 **** 0.06
20405 H 27.749997674132885 63.49784343159729 91.78900344691195 H 0.0 **** 0.06
20406 C 49.64278175496531 110.0620014666303 76.91706140965283 C 0.0 **** -0.24
20407 H 49.564136911987646 110.6729098040482 77.81576398700338 H 0.0 **** 0.06
20408 H 48.6448194626297 109.77399823709032 76.58505561260898 H 0.0 **** 0.06
20409 H 50.22569802512004 109.16680010462781 77.13433439267203 H 0.0 **** 0.06
20410 H 50.13659427621883 110.63502666720504 76.13075622833225 H 0.0 **** 0.06
20411 C 9.14666592319732 26.204007734471475 95.09762281460135 C 0.0 **** -0.24
20412 H 8.870830140586554 25.162634248503878 95.26076146699606 H 0.0 **** 0.06
20413 H 8.684600891380976 26.56258694794309 94.17746289261828 H 0.0 **** 0.06
20414 H 10.230532303739508 26.283893219069853 95.01557188172882 H 0.0 **** 0.06
20415 H 8.800347034880353 26.80784956147994 95.93676326779666 H 0.0 **** 0.06
20416 C 77.14483374681996 11.160853202383521 105.91412588876767 C 0.0 **** -0.24
20417 H 77.83862371189934 10.414275223172808 105.52940375863767 H 0.0 **** 0.06
20418 H 77.49953787818598 11.521242839064783 106.88096031753133 H 0.0 **** 0.06
20419 H 76.15863633739065 10.713499550749873 106.0335315225422 H 0.0 **** 0.06
20420 H 77.08375249836237 11.994710183604951 105.2158366051398 H 0.0 **** 0.06
20421 C 45.018868459252474 24.427404562293823 74.37030939485817 C 0.0 **** -0.24
20422 H 45.82049474354136 24.260282431200356 73.64963819009319 H 0.0 **** 0.06
20423 H 44.934380717499266 23.562085098414837 75.02693743143826 H 0.0 **** 0.06
20424 H 44.0787098460911 24.574996046951004 73.83886144222461 H 0.0 **** 0.06
20425 H 45.24435423426155 25.314066106676755 74.9636464955648 H 0.0 **** 0.06
20426 C 24.953781610831413 27.243881070974155 24.832891116573762 C 0.0 **** -0.24
20427 H 25.993610321760457 27.497887014199577 25.036593287644962 H 0.0 **** 0.06
20428 H 24.34214142579242 27.493601161461747 25.70057056191206 H 0.0 **** 0.06
20429 H 24.874256574467836 26.17546343609272 24.627647306828408 H 0.0 **** 0.06
20430 H 24.604470883276747 27.806461757920673 23.967107439408096 H 0.0 **** 0.06
20431 C 80.90656346737327 10.833078472022105 106.84548983495635 C 0.0 **** -0.24
20432 H 80.97456765485433 10.568754090382132 105.78917522004426 H 0.0 **** 0.06
20433 H 81.68692775864463 10.312154041557228 107.40046795465098 H 0.0 **** 0.06
20434 H 79.9293238673983 10.541014885901745 107.22976318528377 H 0.0 **** 0.06
20435 H 81.03584697396667 11.909133615630275 106.95935142868863 H 0.0 **** 0.06
20436 C 63.24834759306202 95.68225659565593 53.75818108599728 C 0.0 **** -0.24
20437 H 62.920917564921695 96.56759613257839 54.305130799564296 H 0.0 **** 0.06
20438 H 62.38557613039154 95.203258012211 53.294174396956095 H 0.0 **** 0.06
20439 H 63.723701500132904 94.98477588401101 54.44846201175696 H 0.0 **** 0.06
20440 H 63.961432219170035 95.97442916022894 52.98715390648428 H 0.0 **** 0.06
20441 C 109.12590656990334 110.05679253711364 62.25563743323715 C 0.0 **** -0.24
20442 H 109.3340293399677 110.55146431020347 63.20448734348398 H 0.0 **** 0.06
20443 H 108.3684589428345 110.62049007773004 61.71085621654246 H 0.0 **** 0.06
20444 H 108.76217173159704 109.04710227752031 62.445876570062815 H 0.0 **** 0.06
20445 H 110.03977442782586 110.00817961070872 61.66364106141676 H 0.0 **** 0.06
20446 C 35.62788279115449 55.09181170903918 106.08366486848917 C 0.0 **** -0.24
20447 H 36.391749036532815 54.31622546412143 106.14592055806617 H 0.0 **** 0.06
20448 H 36.07575052948289 56.06085712401733 106.30707915718455 H 0.0 **** 0.06
20449 H 34.837741045980124 54.881784515887944 106.80477096949988 H 0.0 **** 0.06
20450 H 35.20762536297974 55.108439312363856 105.07837706283664 H 0.0 **** 0.06
20451 C 5.037312484805213 51.706490048778505 84.95138834154602 C 0.0 **** -0.24
20452 H 5.344996886532968 52.58658056040849 84.38619508052719 H 0.0 **** 0.06
20453 H 5.700537598355837 51.573934227740196 85.80513226773769 H 0.0 **** 0.06
20454 H 5.089280172548186 50.826843056758776 84.3093408723467 H 0.0 **** 0.06
20455 H 4.014164934259625 51.83954964777843 85.30205141128022 H 0.0 **** 0.06
20456 C 98.22270174121388 85.36130713472085 37.32864635440542 C 0.0 **** -0.24
20457 H 97.61448705888282 86.22189879934416 37.60650649305592 H 0.0 **** 0.06
20458 H 98.76719445403205 85.58177537772445 36.40963660613467 H 0.0 **** 0.06
20459 H 97.57908139671034 84.49649989449469 37.17055263514837 H 0.0 **** 0.06
20460 H 98.93203327203764 85.14524884633627 38.12796357634289 H 0.0 **** 0.06
20461 C 1.5737317601984557 41.018818222076305 19.024371939971015 C 0.0 **** -0.24
20462 H 1.251615450728636 42.04137297717929 18.826189506486493 H 0.0 **** 0.06
20463 H 0.7985157201061384 40.496809082040244 19.587596659376512 H 0.0 **** 0.06
20464 H 2.4962865107421095 41.03478217909188 19.605152712834876 H 0.0 **** 0.06
20465 H 1.7476112176629357 40.50219313468719 18.080593454877814 H 0.0 **** 0.06
20466 C 106.56631858867486 43.659446780320735 13.85592648979194 C 0.0 **** -0.24
20467 H 107.45252277025118 44.14949269774834 14.259778647465367 H 0.0 **** 0.06
20468 H 105.70351213680146 43.900795105754554 14.476778649589107 H 0.0 **** 0.06
20469 H 106.71962712757134 42.58041362864043 13.849817066829928 H 0.0 **** 0.06
20470 H 106.39123479795302 44.00731860078605 12.837891495160747 H 0.0 **** 0.06
20471 C 2.002211731789151 37.12729071445963 63.29845220678828 C 0.0 **** -0.24
20472 H 2.9275481035117217 36.81484038962935 62.81472524880809 H 0.0 **** 0.06
20473 H 1.3394174324596166 37.57526730125974 62.55767955652567 H 0.0 **** 0.06
20474 H 2.2281337702329225 37.85986837776514 64.07462596695933 H 0.0 **** 0.06
20475 H 1.5155973243873042 36.26124582208067 63.746195444765306 H 0.0 **** 0.06
20476 C 12.953824272165434 48.61622019995082 53.69869975334501 C 0.0 **** -0.24
20477 H 12.972144996989456 47.54150782131586 53.519116861571604 H 0.0 **** 0.06
20478 H 12.168070963574436 49.07157995189175 53.095279776918346 H 0.0 **** 0.06
20479 H 13.917815062330675 49.046083458612486 53.425143963982975 H 0.0 **** 0.06
20480 H 12.758423881700924 48.80533820039537 54.754536149303306 H 0.0 **** 0.06
20481 C 3.328194894010167 24.748374223278297 52.924793864301705 C 0.0 **** -0.24
20482 H 2.543539683484255 24.33389479897396 52.291964986608974 H 0.0 **** 0.06
20483 H 3.21484043781696 24.367499363636373 53.94047667848443 H 0.0 **** 0.06
20484 H 3.251297909970134 25.835477572828765 52.933878641953925 H 0.0 **** 0.06
20485 H 4.302165801921987 24.455608015633402 52.53315501819685 H 0.0 **** 0.06
20486 C 98.78367243877216 74.7440648895199 108.64537662820229 C 0.0 **** -0.24
20487 H 99.18111177347609 75.2744302306019 109.51099316835233 H 0.0 **** 0.06
20488 H 98.30702025415181 75.45619851139628 107.97166022186791 H 0.0 **** 0.06
20489 H 98.05022163344856 74.00794255298422 108.9753269957492 H 0.0 **** 0.06
20490 H 99.59696635543517 74.23800569489558 108.12510795418912 H 0.0 **** 0.06
20491 C 55.40849768927292 55.34213016999735 98.51865365493867 C 0.0 **** -0.24
20492 H 54.64741513144942 55.0604610543042 99.24586559138481 H 0.0 **** 0.06
20493 H 55.04528164359632 56.17551328716007 97.91717623970561 H 0.0 **** 0.06
20494 H 55.62437073190914 54.49219030615262 97.87185043561968 H 0.0 **** 0.06
20495 H 56.31722602655118 55.64061768264537 99.04252241007376 H 0.0 **** 0.06
20496 C 32.70904029181281 56.09108065027772 30.62551273278416 C 0.0 **** -0.24
20497 H 33.515354894569924 56.82179843355749 30.554945550313576 H 0.0 **** 0.06
20498 H 31.7522958610771 56.61121274450289 30.677763266659838 H 0.0 **** 0.06
20499 H 32.843824727285096 55.48667753104911 31.522062992411335 H 0.0 **** 0.06
20500 H 32.72543412282519 55.446734641220814 29.74711487760868 H 0.0 **** 0.06
20501 C 57.610630196032105 70.12726535794098 24.201727921215536 C 0.0 **** -0.24
20502 H 58.59820051626326 70.35019144612403 23.798312266232642 H 0.0 **** 0.06
20503 H 57.05899946287158 69.51208189305208 23.4901189787507 H 0.0 **** 0.06
20504 H 57.070106859523634 71.05753357143647 24.374935694961323 H 0.0 **** 0.06
20505 H 57.71615365558401 69.58706541474407 25.14297457092519 H 0.0 **** 0.06
20506 C 112.31591411927786 83.8877560325565 93.64454242001273 C 0.0 **** -0.24
20507 H 112.45469210489225 84.47379660434427 94.55383642579199 H 0.0 **** 0.06
20508 H 111.86574338395397 84.5144911852147 92.87515779089111 H 0.0 **** 0.06
20509 H 111.66087750784223 83.04207606129481 93.85472527337686 H 0.0 **** 0.06
20510 H 113.28174200355681 83.52135133485987 93.2973069676172 H 0.0 **** 0.06
20511 C 97.57203021882077 20.982053108929193 52.11268573718018 C 0.0 **** -0.24
20512 H 96.63478940984481 21.5153029145215 51.95749350131838 H 0.0 **** 0.06
20513 H 97.58853657632562 20.561163356225222 53.11879698124681 H 0.0 **** 0.06
20514 H 98.40663611063567 21.67259652414029 51.99303973530287 H 0.0 **** 0.06
20515 H 97.65781228740377 20.178187071157964 51.380436248896785 H 0.0 **** 0.06
20516 C 77.83787851273894 70.36433092239588 112.10163453816584 C 0.0 **** -0.24
20517 H 78.60119513210608 69.68277338321522 111.72660996182658 H 0.0 **** 0.06
20518 H 77.47906307478391 70.01159271207868 113.06848334672934 H 0.0 **** 0.06
20519 H 77.0065191792647 70.40088340425089 111.3965671299139 H 0.0 **** 0.06
20520 H 78.26427326496935 71.36180557069676 112.21295071363836 H 0.0 **** 0.06
20521 C 57.89458214974794 105.09093969320145 17.458184779812058 C 0.0 **** -0.24
20522 H 58.605393000937134 104.63710033735282 16.767821725480715 H 0.0 **** 0.06
20523 H 56.8791455493368 104.83934515410465 17.15164260677345 H 0.0 **** 0.06
20524 H 58.01983040262426 106.174357573144 17.446913236214428 H 0.0 **** 0.06
20525 H 58.075068637370286 104.71548746088547 18.464825017686493 H 0.0 **** 0.06
20526 C 68.31792056173595 25.804257389567454 71.29105148070494 C 0.0 **** -0.24
20527 H 68.02494390538004 26.577741241158492 72.00097809676902 H 0.0 **** 0.06
20528 H 67.6840678868675 25.866074425077613 70.405386793824 H 0.0 **** 0.06
20529 H 68.20137699995644 24.824388146420375 71.75404311495839 H 0.0 **** 0.06
20530 H 69.35908826539688 25.949892238217615 71.00380650966832 H 0.0 **** 0.06
20531 C 93.07079926524594 72.64812141609491 83.09119278219481 C 0.0 **** -0.24
20532 H 93.6913176036048 71.88726340936648 83.56450501284215 H 0.0 **** 0.06
20533 H 92.79163047047919 73.40003163573726 83.82993309420314 H 0.0 **** 0.06
20534 H 92.17091562460101 72.18330089823064 82.68750881016686 H 0.0 **** 0.06
20535 H 93.62882185843938 73.12121728224565 82.28395836469201 H 0.0 **** 0.06
20536 C 96.72398804165908 22.06159367811793 70.06761954789408 C 0.0 **** -0.24
20537 H 96.66649846644839 22.966429124862884 70.67299891344709 H 0.0 **** 0.06
20538 H 96.18322890116269 21.256804261393768 70.56675379937798 H 0.0 **** 0.06
20539 H 97.76753985409817 21.775510290161662 69.9408235203615 H 0.0 **** 0.06
20540 H 96.27642492798941 22.248869642560663 69.09173464619653 H 0.0 **** 0.06
20541 C 10.23039464298995 69.9810341408998 42.023445077273685 C 0.0 **** -0.24
20542 H 10.547844393275852 69.06762146484328 41.51880221042181 H 0.0 **** 0.06
20543 H 9.142732651111658 70.0469535777535 42.00299048741604 H 0.0 **** 0.06
20544 H 10.658444075934824 70.84430615680745 41.5141166109473 H 0.0 **** 0.06
20545 H 10.57492188850216 69.96133459504935 43.05806644549402 H 0.0 **** 0.06
20546 C 84.64508579334662 85.23578659568875 72.77389967669265 C 0.0 **** -0.24
20547 H 84.08783231494314 85.47818247967393 71.86884155491293 H 0.0 **** 0.06
20548 H 84.49775926034408 86.02409582530231 73.51329262996524 H 0.0 **** 0.06
20549 H 85.70615366326012 85.1546406569563 72.53590858915379 H 0.0 **** 0.06
20550 H 84.28949441084859 84.28802524198852 73.17657386683655 H 0.0 **** 0.06
20551 C 41.578466339288745 84.9941126544054 111.3085704784418 C 0.0 **** -0.24
20552 H 40.82578223864403 85.28134381638088 110.57497846491913 H 0.0 **** 0.06
20553 H 41.08881606321807 84.72865274335226 112.24572631089552 H 0.0 **** 0.06
20554 H 42.25805606104643 85.82976172243804 111.47831406085157 H 0.0 **** 0.06
20555 H 42.14135632592629 84.13884616012001 110.93642077237051 H 0.0 **** 0.06
20556 C 68.15822218211952 79.85002242320058 5.5023324937941425 C 0.0 **** -0.24
20557 H 69.17683249875012 79.98254152263979 5.139459200117699 H 0.0 **** 0.06
20558 H 67.63984787652919 79.12697297974358 4.872292025415959 H 0.0 **** 0.06
20559 H 67.63343829222896 80.80414881569914 5.4676623222146645 H 0.0 **** 0.06
20560 H 68.18235954679687 79.48546477634042 6.528964103891951 H 0.0 **** 0.06
20561 C 34.08727861797573 47.10533141314656 112.64282698178113 C 0.0 **** -0.24
20562 H 33.141768502258714 47.577533720296174 112.91191444699311 H 0.0 **** 0.06
20563 H 34.87302852298035 47.86077119427247 112.60994424581577 H 0.0 **** 0.06
20564 H 33.992414758495755 46.63547439312916 111.66378988923341 H 0.0 **** 0.06
20565 H 34.3400175497334 46.34987498801544 113.38550383051185 H 0.0 **** 0.06
20566 C 30.900707055266018 0.18824927616111609 50.698690775478894 C 0.0 **** -0.24
20567 H 30.47038156015114 1.081317959283922 50.24602239785031 H 0.0 **** 0.06
20568 H 31.619673590726585 -0.2572020171617737 50.01010546156516 H 0.0 **** 0.06
20569 H 30.107197954688736 -0.5290396979009131 50.90952780642118 H 0.0 **** 0.06
20570 H 31.40406205105326 0.4574794563961291 51.62675876576145 H 0.0 **** 0.06
20571 C 88.93066424112573 31.979391499732913 37.632595001975496 C 0.0 **** -0.24
20572 H 89.98286507676221 31.74005892474821 37.47411853613622 H 0.0 **** 0.06
20573 H 88.55942462778353 32.56055821478543 36.788101766478285 H 0.0 **** 0.06
20574 H 88.82482830387823 32.56045428455323 38.54892365827725 H 0.0 **** 0.06
20575 H 88.35774667196503 31.05614986097396 37.719149753716884 H 0.0 **** 0.06
20576 C 93.38373943926442 73.51032899737885 13.719853474953453 C 0.0 **** -0.24
20577 H 92.2964984924293 73.59523795935056 13.712234239063374 H 0.0 **** 0.06
20578 H 93.71722003574041 73.21754367214842 14.716088341505465 H 0.0 **** 0.06
20579 H 93.82489894551986 74.4716243870694 13.456621927136016 H 0.0 **** 0.06
20580 H 93.69474844845388 72.75706656477692 12.996032025654191 H 0.0 **** 0.06
20581 C 34.788644894978376 22.926587821790122 47.22578740678169 C 0.0 **** -0.24
20582 H 34.226127665425594 22.580936676654517 46.35851349395796 H 0.0 **** 0.06
20583 H 35.762586161691075 22.43745368657781 47.24485572384867 H 0.0 **** 0.06
20584 H 34.240402360085625 22.68316971414447 48.13585066492085 H 0.0 **** 0.06
20585 H 34.925720724152 24.006561168496404 47.162256015918985 H 0.0 **** 0.06
20586 C 90.69619923192855 43.65324299786522 4.632341518105534 C 0.0 **** -0.24
20587 H 90.06074188457015 44.4140143131302 5.086821895705498 H 0.0 **** 0.06
20588 H 90.18290735971794 42.691847564209205 4.651749380576803 H 0.0 **** 0.06
20589 H 91.62924839645015 43.57859453411186 5.191773650464484 H 0.0 **** 0.06
20590 H 90.91252694293874 43.929645521802456 3.60084585473561 H 0.0 **** 0.06
20591 C 21.86255626938933 15.11044674623568 23.397275465238863 C 0.0 **** -0.24
20592 H 21.804337099936475 14.152947998096693 23.915404885807675 H 0.0 **** 0.06
20593 H 20.98630184567301 15.232136517527238 22.76030828504628 H 0.0 **** 0.06
20594 H 22.764232870459068 15.136354853185281 22.784412075621958 H 0.0 **** 0.06
20595 H 21.89677618259978 15.917839377859934 24.128149241053222 H 0.0 **** 0.06
20596 C 39.8427641462157 85.30668855003208 12.319770160572848 C 0.0 **** -0.24
20597 H 40.54378948212076 85.7702668106352 11.625966123475088 H 0.0 **** 0.06
20598 H 39.801628759729795 84.23357507898217 12.132010283271967 H 0.0 **** 0.06
20599 H 38.85241658999979 85.73852327983124 12.177141811571115 H 0.0 **** 0.06
20600 H 40.17251208850837 85.48451244485949 13.343268736755427 H 0.0 **** 0.06
20601 C 66.1152600058075 18.83373947485761 16.80370254547421 C 0.0 **** -0.24
20602 H 65.31596599448824 18.129272321749042 17.03311807429776 H 0.0 **** 0.06
20603 H 66.38355102922901 19.385639074587317 17.704858014623653 H 0.0 **** 0.06
20604 H 65.7755899416237 19.53085460020543 16.037573215412863 H 0.0 **** 0.06
20605 H 66.98633510517072 18.28868478096365 16.438498485235783 H 0.0 **** 0.06
20606 C 5.946570631501487 43.052240120718295 111.69891930090265 C 0.0 **** -0.24
20607 H 6.268079969227557 42.267723685815525 112.38461759510001 H 0.0 **** 0.06
20608 H 4.9352443826224714 42.84021754783291 111.35250478632713 H 0.0 **** 0.06
20609 H 6.624267168851134 43.08940443125732 110.84660976247449 H 0.0 **** 0.06
20610 H 5.959642537961372 44.01253782624747 112.21544412179063 H 0.0 **** 0.06
20611 C 88.11568125967378 102.67466666811782 0.2784078439638993 C 0.0 **** -0.24
20612 H 88.22147306052332 102.22579432931508 -0.7091477742495709 H 0.0 **** 0.06
20613 H 88.99326859094217 103.28512546311003 0.49519350418633934 H 0.0 **** 0.06
20614 H 88.02544162337432 101.8879996728138 1.0269832868890365 H 0.0 **** 0.06
20615 H 87.22376993038611 103.3004736688437 0.2988806900380325 H 0.0 **** 0.06
20616 C 16.000922966167387 108.97028329252316 91.37231551163353 C 0.0 **** -0.24
20617 H 15.62964658448077 108.49127229661738 90.46708425571094 H 0.0 **** 0.06
20618 H 16.727780481438366 108.31705855254246 91.8560396405991 H 0.0 **** 0.06
20619 H 15.16935024796458 109.1552000033941 92.05315108565776 H 0.0 **** 0.06
20620 H 16.476355912013627 109.91577389837035 91.11451845165297 H 0.0 **** 0.06
20621 C 85.93648869458744 50.111564083928705 111.92546910470232 C 0.0 **** -0.24
20622 H 85.21958422093115 50.90075481757698 112.15555048713136 H 0.0 **** 0.06
20623 H 86.64084935630856 50.00850527087495 112.75119385017648 H 0.0 **** 0.06
20624 H 86.4780827164081 50.36803159274871 111.0144478226077 H 0.0 **** 0.06
20625 H 85.40585415682119 49.170362190807516 111.77995140072647 H 0.0 **** 0.06
20626 C 46.90483183524182 65.57604866125519 64.32051078207937 C 0.0 **** -0.24
20627 H 46.08802103447124 65.22808470194238 64.95495048757712 H 0.0 **** 0.06
20628 H 47.79890078901488 64.98783857956658 64.52609037167227 H 0.0 **** 0.06
20629 H 47.10302368158165 66.6274741295262 64.5299980085712 H 0.0 **** 0.06
20630 H 46.62521651004408 65.46034611354139 63.27311324100486 H 0.0 **** 0.06
20631 C 20.464610760843446 71.78821409216852 62.431410297836145 C 0.0 **** -0.24
20632 H 19.80286670616528 71.41643021878372 63.213249736290486 H 0.0 **** 0.06
20633 H 21.118687208313 70.98268340648366 62.09495553594129 H 0.0 **** 0.06
20634 H 21.06856426819873 72.60566912109405 62.82462245216629 H 0.0 **** 0.06
20635 H 19.868928227504725 72.14772707416023 61.59158222110528 H 0.0 **** 0.06
20636 C 84.89012090687356 14.777519063327713 96.73111909309537 C 0.0 **** -0.24
20637 H 84.87443981288442 15.860958517855561 96.85296526044482 H 0.0 **** 0.06
20638 H 84.0492030248553 14.470415915357442 96.10965297359698 H 0.0 **** 0.06
20639 H 84.81385319927725 14.301466621997523 97.7085860680937 H 0.0 **** 0.06
20640 H 85.82402477403502 14.480044816539014 96.25344758380561 H 0.0 **** 0.06
20641 C 80.45520267029536 82.64006171119851 76.20042119337953 C 0.0 **** -0.24
20642 H 79.3733206853131 82.50761051727079 76.22025698631919 H 0.0 **** 0.06
20643 H 80.69489976785513 83.60305873491512 75.74778611536647 H 0.0 **** 0.06
20644 H 80.90966127630674 81.83981143607667 75.61637302836854 H 0.0 **** 0.06
20645 H 80.84309765601273 82.61069979868756 77.21929352242302 H 0.0 **** 0.06
20646 C 57.44943869963592 90.92868141580851 27.93595279897187 C 0.0 **** -0.24
20647 H 58.34493583513856 91.45261629475408 27.603138344986036 H 0.0 **** 0.06
20648 H 57.72508914705617 90.16084440491608 28.658661960248757 H 0.0 **** 0.06
20649 H 56.960711040220815 90.46437716069238 27.079884357190522 H 0.0 **** 0.06
20650 H 56.76599942448189 91.63878437184289 28.402730049804305 H 0.0 **** 0.06
20651 C 72.2619611821415 2.8828757316186113 54.72758095877647 C 0.0 **** -0.24
20652 H 72.7493162522293 2.888310895448422 53.752749245327685 H 0.0 **** 0.06
20653 H 71.52784870278634 2.0777238850108635 54.762059603882484 H 0.0 **** 0.06
20654 H 71.76118707171744 3.8379125503587606 54.88752587032198 H 0.0 **** 0.06
20655 H 73.00875170194584 2.7289971775729214 55.50615251515824 H 0.0 **** 0.06
20656 C 56.37088057632508 34.77068373174143 106.14596930573407 C 0.0 **** -0.24
20657 H 56.102181946147965 34.25083213818291 105.22633690077191 H 0.0 **** 0.06
20658 H 57.43687919586122 34.642345680376984 106.33620265989285 H 0.0 **** 0.06
20659 H 55.80051084190171 34.35546088879171 106.97692222425414 H 0.0 **** 0.06
20660 H 56.144442719858944 35.831710310027894 106.04266458402412 H 0.0 **** 0.06
20661 C 59.90911354929614 67.88707791827159 4.4568822409875395 C 0.0 **** -0.24
20662 H 59.61471372177044 68.69800120167642 3.790998966634149 H 0.0 **** 0.06
20663 H 60.99495782704139 67.87520220618578 4.55771196522268 H 0.0 **** 0.06
20664 H 59.57137900115458 66.93644930580896 4.043226527356381 H 0.0 **** 0.06
20665 H 59.454348969915486 68.03791218010181 5.436744824560776 H 0.0 **** 0.06
20666 C 0.31514631416888506 50.77277316552709 68.26423555288426 C 0.0 **** -0.24
20667 H -0.22308995282371313 51.10738330930021 69.1505662550523 H 0.0 **** 0.06
20668 H 0.5567808235141882 51.63325668634175 67.63934969770116 H 0.0 **** 0.06
20669 H -0.30819327292002185 50.07820672863738 67.70058083015601 H 0.0 **** 0.06
20670 H 1.235678043231104 50.27265215766043 68.56574794133778 H 0.0 **** 0.06
20671 C 21.535005893174258 89.28061343109613 81.11006544650496 C 0.0 **** -0.24
20672 H 22.0508270539531 89.20477737955682 80.15224193557913 H 0.0 **** 0.06
20673 H 21.245529770493874 88.28436193252989 81.44631979694879 H 0.0 **** 0.06
20674 H 20.643788432812585 89.89771209176021 80.99442336548094 H 0.0 **** 0.06
20675 H 22.19915433613795 89.7350060791035 81.84524675359211 H 0.0 **** 0.06
20676 C 39.75421206268541 71.5270346251491 34.535760481597535 C 0.0 **** -0.24
20677 H 39.05996652713355 70.70745196634573 34.72204737880672 H 0.0 **** 0.06
20678 H 39.560166398568484 72.33419361132675 35.24252923713908 H 0.0 **** 0.06
20679 H 39.62028162432835 71.8931642610776 33.51841783868463 H 0.0 **** 0.06
20680 H 40.77672785543139 71.17075648138191 34.66118668835401 H 0.0 **** 0.06
20681 C 37.284461860890765 49.593606649165174 103.63648465931854 C 0.0 **** -0.24
20682 H 38.121910314676214 48.9299006528696 103.41989319261253 H 0.0 **** 0.06
20683 H 36.489439915261016 49.02751070291305 104.12275405504218 H 0.0 **** 0.06
20684 H 36.91085076116776 50.02127061226272 102.70684623954878 H 0.0 **** 0.06
20685 H 37.618350727400866 50.393594564093036 104.29747706915288 H 0.0 **** 0.06
20686 C 7.889355643657439 103.41158923188635 98.46775484002347 C 0.0 **** -0.24
20687 H 7.078256945352223 103.94940962182648 97.97888225181967 H 0.0 **** 0.06
20688 H 8.554757070376866 104.12376087720085 98.95684065886064 H 0.0 **** 0.06
20689 H 8.448246999897663 102.84242832068597 97.72475772513448 H 0.0 **** 0.06
20690 H 7.4769828385009305 102.73037675302334 99.2120152874063 H 0.0 **** 0.06
20691 C 37.905923739950836 48.31402812510347 12.424349916237873 C 0.0 **** -0.24
20692 H 38.23812912376823 47.681022410130105 11.601607715136964 H 0.0 **** 0.06
20693 H 38.40410503237507 48.0061216472438 13.34357044594907 H 0.0 **** 0.06
20694 H 36.82621471025561 48.216036310765155 12.544784570533068 H 0.0 **** 0.06
20695 H 38.15341249001628 49.3531556296698 12.205828117659252 H 0.0 **** 0.06
20696 C 50.68390586847593 76.78933532990163 12.078340188000723 C 0.0 **** -0.24
20697 H 50.22326946906881 75.81697074618722 12.25691705305428 H 0.0 **** 0.06
20698 H 50.92565380924993 77.25613887722068 13.033608116592404 H 0.0 **** 0.06
20699 H 49.99066529009242 77.42450720038431 11.527458575717702 H 0.0 **** 0.06
20700 H 51.59625859037332 76.6566027059909 11.497167294543033 H 0.0 **** 0.06
20701 C 78.47403634016447 109.2491044175718 37.1065920147538 C 0.0 **** -0.24
20702 H 78.88748995580536 109.51292385239041 38.08041789621831 H 0.0 **** 0.06
20703 H 77.66501745157882 108.53058066690545 37.23824477149594 H 0.0 **** 0.06
20704 H 79.25611697996848 108.80709053602845 36.489043629999 H 0.0 **** 0.06
20705 H 78.0891644958011 110.14539363592522 36.620426740376274 H 0.0 **** 0.06
20706 C 13.613019303243199 66.38921527182387 97.6785584413501 C 0.0 **** -0.24
20707 H 14.11021879499446 65.63884899064271 98.29246840601132 H 0.0 **** 0.06
20708 H 14.310775731126256 67.19746922389231 97.45782568650102 H 0.0 **** 0.06
20709 H 12.753057721055146 66.78707485031774 98.21665432621265 H 0.0 **** 0.06
20710 H 13.278432627035105 65.932892727954 96.74657618851947 H 0.0 **** 0.06
20711 C 19.700248088604525 28.286748273297803 4.696131575543598 C 0.0 **** -0.24
20712 H 19.659655570864004 28.209252857792023 3.6097448646098425 H 0.0 **** 0.06
20713 H 20.72868830480985 28.148918918320078 5.031862500509597 H 0.0 **** 0.06
20714 H 19.067541339583343 27.516918359384476 5.138609257903953 H 0.0 **** 0.06
20715 H 19.345588192199244 29.269984211666497 5.004014334357423 H 0.0 **** 0.06
20716 C 33.42295982436241 99.60262016840278 7.23391088335733 C 0.0 **** -0.24
20717 H 33.58656250908348 100.51213784908592 6.656981019369857 H 0.0 **** 0.06
20718 H 34.38261321897045 99.20385357943022 7.563557646709416 H 0.0 **** 0.06
20719 H 32.91591829333743 98.86493378135839 6.612769987615179 H 0.0 **** 0.06
20720 H 32.80564906363725 99.82951773902792 8.10367542639399 H 0.0 **** 0.06
20721 C 51.452620286166564 36.63783469617704 19.83052443402522 C 0.0 **** -0.24
20722 H 51.34223878781995 36.6381125217875 20.915101890666563 H 0.0 **** 0.06
20723 H 50.77827025748593 35.90055439840502 19.396382616541075 H 0.0 **** 0.06
20724 H 52.481926536120795 36.388353628505165 19.57063542748449 H 0.0 **** 0.06
20725 H 51.209443710852895 37.62711588179583 19.44146744633116 H 0.0 **** 0.06
20726 C 22.576281686801593 16.013501656316837 101.22504671575896 C 0.0 **** -0.24
20727 H 23.313690455237293 15.316687361320117 100.82669068035304 H 0.0 **** 0.06
20728 H 21.961175925489172 16.396032917976168 100.41062906003611 H 0.0 **** 0.06
20729 H 23.087568902878104 16.842375540868858 101.71466887628603 H 0.0 **** 0.06
20730 H 21.94364919261031 15.498655805376412 101.94806487841237 H 0.0 **** 0.06
20731 C 27.539315639941236 22.676682892702217 69.7246709022615 C 0.0 **** -0.24
20732 H 27.212162683345724 23.451396204770163 69.03101635440126 H 0.0 **** 0.06
20733 H 28.328425808191383 22.083714266336358 69.26111313667522 H 0.0 **** 0.06
20734 H 26.69676443696744 22.03152389984683 69.97195148542062 H 0.0 **** 0.06
20735 H 27.919761201615017 23.14150152165422 70.63452541614197 H 0.0 **** 0.06
20736 C 83.20429793370377 34.5377258790532 78.00912471109086 C 0.0 **** -0.24
20737 H 84.15858891098605 35.04592420766568 77.87059824960565 H 0.0 **** 0.06
20738 H 82.4032890478912 35.1530159389722 77.59986162515304 H 0.0 **** 0.06
20739 H 83.03104045360126 34.37484823410574 79.07326246315569 H 0.0 **** 0.06
20740 H 83.2251731092432 33.577551034670364 77.49275571865485 H 0.0 **** 0.06
20741 C 76.79820901033003 42.922590803824676 19.521671726458713 C 0.0 **** -0.24
20742 H 76.97641574650947 42.37851007048209 20.44869753566562 H 0.0 **** 0.06
20743 H 77.0139637016751 43.98061443770561 19.67477093222511 H 0.0 **** 0.06
20744 H 75.75524801520797 42.803816748408565 19.22624908768426 H 0.0 **** 0.06
20745 H 77.44504956513398 42.52802554608809 18.73896305448488 H 0.0 **** 0.06
20746 C 20.045447863781988 38.39553806480363 36.324446933283866 C 0.0 **** -0.24
20747 H 21.053947283333315 38.306874921184416 36.73013183244194 H 0.0 **** 0.06
20748 H 20.081611224799914 38.936301489007505 35.37931601228212 H 0.0 **** 0.06
20749 H 19.41740215629231 38.937962045595 37.03157792392602 H 0.0 **** 0.06
20750 H 19.631342398944113 37.40072348549765 36.16031282597095 H 0.0 **** 0.06
20751 C 41.20693885527885 47.985766835736044 27.630446538532837 C 0.0 **** -0.24
20752 H 40.53862630310397 48.485668229267446 26.92961753194747 H 0.0 **** 0.06
20753 H 42.23537227827293 48.077357336832726 27.280617603661156 H 0.0 **** 0.06
20754 H 40.93925875555601 46.931514507974214 27.700165799284648 H 0.0 **** 0.06
20755 H 41.1153676100611 48.44925357509515 28.613557025941333 H 0.0 **** 0.06
20756 C 85.74028773327848 40.36014083946975 29.610794449323492 C 0.0 **** -0.24
20757 H 85.88091721797622 39.7260972627646 28.735282317876766 H 0.0 **** 0.06
20758 H 85.79850334843258 41.407425542989756 29.313610827840535 H 0.0 **** 0.06
20759 H 86.51888679539428 40.14596277568171 30.343300202485324 H 0.0 **** 0.06
20760 H 84.76276924480791 40.16012478757057 30.05069060473744 H 0.0 **** 0.06
20761 C 102.94653703282964 24.453892999729362 107.5521866072192 C 0.0 **** -0.24
20762 H 103.13655999513688 24.01499200361914 108.53178938078005 H 0.0 **** 0.06
20763 H 103.876215150793 24.856131863460746 107.14880722815428 H 0.0 **** 0.06
20764 H 102.2152183056607 25.255330294345498 107.64905497975022 H 0.0 **** 0.06
20765 H 102.55994524932154 23.687670788787017 106.87993165015739 H 0.0 **** 0.06
20766 C 65.65095646330258 98.13574697410368 92.03751061320682 C 0.0 **** -0.24
20767 H 65.61204489711218 97.83560033710688 93.08500014425178 H 0.0 **** 0.06
20768 H 66.23912662675968 99.04835225754891 91.94359140640591 H 0.0 **** 0.06
20769 H 64.63874200912869 98.31552399971082 91.67439693097634 H 0.0 **** 0.06
20770 H 66.11177991760144 97.34189862692597 91.44947324287602 H 0.0 **** 0.06
20771 C 2.5890348939401093 102.22336503931433 40.22188224178576 C 0.0 **** -0.24
20772 H 3.4465764189104817 102.16616692529198 39.55237254823008 H 0.0 **** 0.06
20773 H 1.6799982230321433 102.36531826632998 39.63582839852248 H 0.0 **** 0.06
20774 H 2.71591654251705 103.0640154847905 40.903891959941305 H 0.0 **** 0.06
20775 H 2.51233971639914 101.29885293370194 40.79385827858465 H 0.0 **** 0.06
20776 C 58.187381392589145 105.77239401502379 74.7722103377443 C 0.0 **** -0.24
20777 H 57.332920518237444 105.10686049029079 74.64588068119707 H 0.0 **** 0.06
20778 H 59.076236538291994 105.3046457845706 74.3494083925919 H 0.0 **** 0.06
20779 H 58.346461382561074 105.96096427606773 75.8345023280826 H 0.0 **** 0.06
20780 H 57.99323193744715 106.71481840181434 74.2608703237324 H 0.0 **** 0.06
20781 C 82.21982815922436 62.59601922894825 58.712222775459914 C 0.0 **** -0.24
20782 H 81.96735205906404 63.637336630285176 58.91289986105223 H 0.0 **** 0.06
20783 H 81.49659350363862 62.176279022794944 58.01331351056694 H 0.0 **** 0.06
20784 H 82.19746292597696 62.031212610379214 59.644161971350634 H 0.0 **** 0.06
20785 H 83.21881028251798 62.54243672897209 58.27864110613947 H 0.0 **** 0.06
20786 C 93.75526782507009 38.568187246609085 63.8229869386382 C 0.0 **** -0.24
20787 H 93.93955752511832 37.49367506527119 63.78978519761015 H 0.0 **** 0.06
20788 H 92.76744988533608 38.754037173297405 64.24374086931991 H 0.0 **** 0.06
20789 H 93.80361769099315 38.97607092956508 62.81291484737174 H 0.0 **** 0.06
20790 H 94.5115299299595 39.04699348602645 64.44453948686203 H 0.0 **** 0.06
20791 C 63.19771971339116 63.14103940678651 93.25761129196309 C 0.0 **** -0.24
20792 H 62.30514129927143 63.370597139468295 93.8400522260153 H 0.0 **** 0.06
20793 H 63.71265412217142 62.28927362565047 93.70299433043874 H 0.0 **** 0.06
20794 H 63.86049916830188 64.00590440758629 93.25268500636562 H 0.0 **** 0.06
20795 H 62.91024785645275 62.89771858013888 92.23439609618495 H 0.0 **** 0.06
20796 C 22.288767589620267 109.22501214476469 111.32106790105603 C 0.0 **** -0.24
20797 H 22.648406760177068 108.37931877590809 111.90785391425253 H 0.0 **** 0.06
20798 H 22.75505542085459 109.20696544703522 110.33579261547267 H 0.0 **** 0.06
20799 H 22.546483204725437 110.15422100930421 111.8287635865514 H 0.0 **** 0.06
20800 H 21.206444633118398 109.15792375922275 111.21265880601713 H 0.0 **** 0.06
20801 C 6.5340674249603445 77.35781528523049 83.78163848847996 C 0.0 **** -0.24
20802 H 6.491694020098553 76.40602098132581 84.3116248233633 H 0.0 **** 0.06
20803 H 7.572069851181929 77.6804547057597 83.69821678879387 H 0.0 **** 0.06
20804 H 5.963282073868577 78.10649336361877 84.33249028452926 H 0.0 **** 0.06
20805 H 6.108885310364414 77.23785792335462 82.78505692925691 H 0.0 **** 0.06
20806 C 0.07312970827814524 42.209375046535 91.44642978884096 C 0.0 **** -0.24
20807 H -0.3637972924367432 43.121848867811934 91.85181811761137 H 0.0 **** 0.06
20808 H 0.9045341054373921 41.89408435253631 92.07781236974023 H 0.0 **** 0.06
20809 H 0.4340690052258651 42.39748905922431 90.43524022422426 H 0.0 **** 0.06
20810 H -0.6826893515201959 41.424284422511676 91.42252045533391 H 0.0 **** 0.06
20811 C 72.3615919664588 41.600091859455596 37.64348860947578 C 0.0 **** -0.24
20812 H 71.94501486054318 42.58283360243525 37.86353303777338 H 0.0 **** 0.06
20813 H 71.58364572650368 40.84413600122577 37.747569077432956 H 0.0 **** 0.06
20814 H 73.17305208249704 41.385729684480104 38.34007946207211 H 0.0 **** 0.06
20815 H 72.74665427424691 41.58785128895869 36.62375796516267 H 0.0 **** 0.06
20816 C 105.57972626700692 35.50803951884137 87.54190970941676 C 0.0 **** -0.24
20817 H 106.160155983475 36.298102570388224 87.06571742197292 H 0.0 **** 0.06
20818 H 104.68522327714334 35.93602326382408 87.99429527139279 H 0.0 **** 0.06
20819 H 106.18350433128458 35.02839707766944 88.31292891969164 H 0.0 **** 0.06
20820 H 105.29207632765403 34.76876481899464 86.79455450361851 H 0.0 **** 0.06
20821 C 23.57428509366906 60.15393448348136 85.36808213316499 C 0.0 **** -0.24
20822 H 23.024119751472 61.04227408973215 85.05759342599103 H 0.0 **** 0.06
20823 H 23.692852378869418 60.159981792775305 86.4521922251902 H 0.0 **** 0.06
20824 H 24.556209996896456 60.15058694267845 84.89460490754797 H 0.0 **** 0.06
20825 H 23.023234053397374 59.26223540053686 85.06813893363307 H 0.0 **** 0.06
20826 C 33.049418761540295 32.207024122431136 97.20228586215353 C 0.0 **** -0.24
20827 H 34.03741603825421 31.989054249184505 97.60788160717405 H 0.0 **** 0.06
20828 H 32.945588782239994 33.28288170561339 97.0594635362543 H 0.0 **** 0.06
20829 H 32.28637250784976 31.85784216720245 97.8974115521377 H 0.0 **** 0.06
20830 H 32.92955243948937 31.699403876238392 96.24550370053382 H 0.0 **** 0.06
20831 C 81.27814066253629 48.64032220085619 29.16279860315452 C 0.0 **** -0.24
20832 H 82.02046172693736 49.36074719278318 28.820381295369863 H 0.0 **** 0.06
20833 H 81.32399394684955 48.56046959696084 30.249666820451196 H 0.0 **** 0.06
20834 H 81.48460880123497 47.66674386557301 28.71754636199433 H 0.0 **** 0.06
20835 H 80.28358867808902 48.97251705269093 28.864177853622614 H 0.0 **** 0.06
20836 C 99.68780050116393 47.2026805636346 81.50917737894702 C 0.0 **** -0.24
20837 H 100.19240264999536 48.14352020783099 81.72762369281736 H 0.0 **** 0.06
20838 H 100.3839035056927 46.37592667637898 81.65532484757807 H 0.0 **** 0.06
20839 H 99.34051673937205 47.20786318196207 80.47689475614425 H 0.0 **** 0.06
20840 H 98.83641681265786 47.082972706282305 82.17902379479543 H 0.0 **** 0.06
20841 C 76.64245732275813 7.114710276277847 51.89418571485519 C 0.0 **** -0.24
20842 H 77.29069319745892 7.934524847827987 51.584930642529315 H 0.0 **** 0.06
20843 H 76.27669420352876 6.588493781993122 51.012252637137195 H 0.0 **** 0.06
20844 H 75.79738418549294 7.512894077955494 52.456357822322154 H 0.0 **** 0.06
20845 H 77.20432622257235 6.425036755276338 52.52306017874936 H 0.0 **** 0.06
20846 C 76.03103357973811 75.15960347526348 72.87239108177283 C 0.0 **** -0.24
20847 H 75.7173642468932 75.43557659949079 73.87915211344077 H 0.0 **** 0.06
20848 H 75.51714271325517 74.24735839736431 72.56980478064096 H 0.0 **** 0.06
20849 H 77.10732343555259 74.99190040575266 72.86038545380936 H 0.0 **** 0.06
20850 H 75.78007579991504 75.9644202868378 72.18079399235128 H 0.0 **** 0.06
20851 C 52.34775227027674 68.27010067741031 32.323070717084306 C 0.0 **** -0.24
20852 H 52.60019627483257 69.29288784166562 32.60421636282291 H 0.0 **** 0.06
20853 H 51.62177357853267 67.86813806006884 33.02920550200662 H 0.0 **** 0.06
20854 H 53.24812688041047 67.65654573535653 32.33711492951625 H 0.0 **** 0.06
20855 H 51.920400928704055 68.26453712850821 31.31954873973274 H 0.0 **** 0.06
20856 C 29.14572887077904 35.87646965523538 60.533088223719744 C 0.0 **** -0.24
20857 H 29.3049552332065 36.496712202695335 61.415112901906696 H 0.0 **** 0.06
20858 H 28.14478417150511 35.445897841693636 60.568088724413656 H 0.0 **** 0.06
20859 H 29.885734215398514 35.07652168948175 60.513170356082185 H 0.0 **** 0.06
20860 H 29.246879876198705 36.4879567835668 59.636450417262836 H 0.0 **** 0.06
20861 C 64.33709913877252 12.115092538922767 110.53976386940874 C 0.0 **** -0.24
20862 H 64.76629809344888 11.585086174613252 111.38975379427441 H 0.0 **** 0.06
20863 H 63.63084238549385 12.864165373799807 110.89772290735391 H 0.0 **** 0.06
20864 H 63.8182551847637 11.406185017112591 109.89395777854838 H 0.0 **** 0.06
20865 H 65.13315469549536 12.604009257144156 109.977271698898 H 0.0 **** 0.06
20866 C 97.08476191056141 36.47144221071417 86.75917957162022 C 0.0 **** -0.24
20867 H 96.83714074029885 36.04183000566525 85.78898606233332 H 0.0 **** 0.06
20868 H 97.47164938732593 37.48177256040941 86.622102516643 H 0.0 **** 0.06
20869 H 97.83955229154091 35.85629056559992 87.24759869791933 H 0.0 **** 0.06
20870 H 96.18880002102023 36.506825151787126 87.37924307723722 H 0.0 **** 0.06
20871 C 10.664009117588876 108.94401016207226 29.36463022265204 C 0.0 **** -0.24
20872 H 11.51875537365106 108.67337564216496 29.985716583821585 H 0.0 **** 0.06
20873 H 10.976539459820401 109.66960942218742 28.61296277666699 H 0.0 **** 0.06
20874 H 9.884792516493917 109.38023871000378 29.990381439461316 H 0.0 **** 0.06
20875 H 10.277465457397227 108.05271196409734 28.871100212490717 H 0.0 **** 0.06
20876 C 79.98140617105315 23.72688005869864 59.86377303282554 C 0.0 **** -0.24
20877 H 79.0886982783586 23.261384933951604 59.44450298800721 H 0.0 **** 0.06
20878 H 80.50185419669793 24.28293499586897 59.084570171487236 H 0.0 **** 0.06
20879 H 80.63932120451045 22.95489221107664 60.26247084212053 H 0.0 **** 0.06
20880 H 79.69295232682262 24.407082661625964 60.6657083408626 H 0.0 **** 0.06
20881 C 77.57405081122971 16.05644221832378 97.41663749258944 C 0.0 **** -0.24
20882 H 77.92067623103725 16.555298304306973 96.5108544667356 H 0.0 **** 0.06
20883 H 76.92276968078608 16.728954605514105 97.9741249978766 H 0.0 **** 0.06
20884 H 78.4322012290479 15.78668018031425 98.03234091410701 H 0.0 **** 0.06
20885 H 77.02289814924814 15.156301237412379 97.14616883480133 H 0.0 **** 0.06
20886 C 12.831010432063241 45.58780055423162 83.92636877461035 C 0.0 **** -0.24
20887 H 12.609663044825552 44.56682791144979 84.23693691727175 H 0.0 **** 0.06
20888 H 13.874101080552045 45.81582167362984 84.14265697277966 H 0.0 **** 0.06
20889 H 12.186602810916074 46.279784841274335 84.4694498064992 H 0.0 **** 0.06
20890 H 12.651374149671842 45.68862741047684 82.85560213785806 H 0.0 **** 0.06
20891 C 24.45790751766623 86.29652049559365 85.92323942294198 C 0.0 **** -0.24
20892 H 23.630502950018638 86.79058119891116 85.41371601400408 H 0.0 **** 0.06
20893 H 24.880399480166375 86.97104391498345 86.66849114699389 H 0.0 **** 0.06
20894 H 25.225291167462927 86.03022909172785 85.19657333963158 H 0.0 **** 0.06
20895 H 24.094786666388046 85.39317995598427 86.41486996558214 H 0.0 **** 0.06
20896 C 73.56834248305972 18.04546370451483 36.122747489930305 C 0.0 **** -0.24
20897 H 74.59422464826093 17.695838991904452 36.23424043332932 H 0.0 **** 0.06
20898 H 72.99623360197225 17.781961110897328 37.01244362475546 H 0.0 **** 0.06
20899 H 73.117789927952 17.575719410082456 35.24793143423625 H 0.0 **** 0.06
20900 H 73.56588193214677 19.128098856023144 35.9957692585196 H 0.0 **** 0.06
20901 C 84.60801020067964 34.415744191206365 86.61307370223358 C 0.0 **** -0.24
20902 H 85.00790991298828 33.92349464758009 87.49951884526268 H 0.0 **** 0.06
20903 H 83.9955735148751 33.70933776777587 86.05192068355382 H 0.0 **** 0.06
20904 H 85.43094306008322 34.76141625422251 85.98740707607323 H 0.0 **** 0.06
20905 H 83.99784578383725 35.266723283695924 86.91441123900483 H 0.0 **** 0.06
20906 C 33.88256140341418 36.43243429206279 97.12337353983219 C 0.0 **** -0.24
20907 H 34.33151564236233 36.0365452874344 96.21218014483978 H 0.0 **** 0.06
20908 H 34.5340474834614 36.218082209378835 97.971495908386 H 0.0 **** 0.06
20909 H 32.91097435243824 35.96492554239272 97.28283687039487 H 0.0 **** 0.06
20910 H 33.75597415458922 37.51101073347991 97.02655436047945 H 0.0 **** 0.06
20911 C 103.32383167678645 4.047743486657913 90.4652193055914 C 0.0 **** -0.24
20912 H 103.36985592985829 4.631311379913109 89.54525260881442 H 0.0 **** 0.06
20913 H 103.43012206660501 4.712842133505262 91.32197919574554 H 0.0 **** 0.06
20914 H 104.13020085225588 3.3144713949534648 90.47106512670334 H 0.0 **** 0.06
20915 H 102.36447622929063 3.5339643924415007 90.5208656816678 H 0.0 **** 0.06
20916 C 5.1971392303484105 68.57767575614201 42.503581010960175 C 0.0 **** -0.24
20917 H 5.800179248611171 68.74453900980689 43.3969811840345 H 0.0 **** 0.06
20918 H 5.585912724564162 67.71718591838356 41.95897032075604 H 0.0 **** 0.06
20919 H 5.241528112213798 69.46106288394509 41.86639562722186 H 0.0 **** 0.06
20920 H 4.163276223669126 68.38986831666608 42.792821433257785 H 0.0 **** 0.06
20921 C 82.95358808604186 106.95518705708044 83.72151670281292 C 0.0 **** -0.24
20922 H 84.00613491390101 107.21748882872951 83.61419312855574 H 0.0 **** 0.06
20923 H 82.74589369997551 106.70231674972543 84.7614941398144 H 0.0 **** 0.06
20924 H 82.72681008586352 106.09850661185237 83.086475939015 H 0.0 **** 0.06
20925 H 82.33613607127023 107.80275993470866 83.42231998587985 H 0.0 **** 0.06
20926 C 39.04884151453382 74.88976634014242 40.66179300190845 C 0.0 **** -0.24
20927 H 38.22241243799533 75.2986975591486 40.08092502916392 H 0.0 **** 0.06
20928 H 38.766145475205406 74.84857584228172 41.71480430996348 H 0.0 **** 0.06
20929 H 39.92495577506702 75.5278373448605 40.545734441042015 H 0.0 **** 0.06
20930 H 39.28089666651147 73.88519387378668 40.30806435156066 H 0.0 **** 0.06
20931 C 99.99190460647978 59.38695710901203 75.80271492331474 C 0.0 **** -0.24
20932 H 99.67299110371209 60.19235135316811 75.14092818146321 H 0.0 **** 0.06
20933 H 100.9933663483647 59.601990395910065 76.17831521090352 H 0.0 **** 0.06
20934 H 100.00400190166937 58.446692352524764 75.25095205216587 H 0.0 **** 0.06
20935 H 99.29863532884025 59.30849427684524 76.64019906377428 H 0.0 **** 0.06
20936 C 65.12930762003802 80.53261107696355 44.86132203491474 C 0.0 **** -0.24
20937 H 64.23411958332312 79.95162344344999 44.63674864244654 H 0.0 **** 0.06
20938 H 65.25535590005168 80.6016710014153 45.942147177803115 H 0.0 **** 0.06
20939 H 65.0273901951781 81.5326996659515 44.44107450115609 H 0.0 **** 0.06
20940 H 65.9986807648888 80.0414599324537 44.42421189082107 H 0.0 **** 0.06
20941 C 44.63668124019383 49.352919590587334 22.52150097058029 C 0.0 **** -0.24
20942 H 44.002452098434546 48.94620198080136 23.308367222771892 H 0.0 **** 0.06
20943 H 44.57540283096468 50.441941485018816 22.53113201065372 H 0.0 **** 0.06
20944 H 44.301387194791616 48.97772296337845 21.55457709266915 H 0.0 **** 0.06
20945 H 45.6688835970337 49.045857855334184 22.69211696257304 H 0.0 **** 0.06
20946 C 64.07529521267921 51.316657084635416 98.4600642239923 C 0.0 **** -0.24
20947 H 64.9293034654668 51.37842658596064 99.13505523118036 H 0.0 **** 0.06
20948 H 63.29267530621689 50.71368366986164 98.91944040510614 H 0.0 **** 0.06
20949 H 64.38614617319678 50.85662142454384 97.52237385468038 H 0.0 **** 0.06
20950 H 63.69566085639556 52.3202516174593 98.26467937771423 H 0.0 **** 0.06
20951 C 85.14376160960612 34.92456143084692 49.595098554938545 C 0.0 **** -0.24
20952 H 85.29111123049086 35.84069686357673 49.02235917147802 H 0.0 **** 0.06
20953 H 85.72831917438853 34.119306594874026 49.148496296725575 H 0.0 **** 0.06
20954 H 84.08786772654523 34.655780073554745 49.58391675019259 H 0.0 **** 0.06
20955 H 85.46788821558408 35.082687092396675 50.623639560434256 H 0.0 **** 0.06
20956 C 108.95225557865284 25.49310065994898 87.91175766256049 C 0.0 **** -0.24
20957 H 108.29916422401575 26.362422441776914 87.98262842308398 H 0.0 **** 0.06
20958 H 108.83621069753158 24.878366981290547 88.80362110772666 H 0.0 **** 0.06
20959 H 109.98785500277027 25.823311742648443 87.82942374700562 H 0.0 **** 0.06
20960 H 108.68597927569513 24.909875037569154 87.02977963499174 H 0.0 **** 0.06
20961 C 96.71085382302613 69.77432039701318 48.10869405381263 C 0.0 **** -0.24
20962 H 97.29859818044318 70.69112267618473 48.16117811051106 H 0.0 **** 0.06
20963 H 95.66268424283433 70.00378343930026 48.30300228285856 H 0.0 **** 0.06
20964 H 97.0736256308113 69.06757385660163 48.853974030706254 H 0.0 **** 0.06
20965 H 96.80940411192606 69.33677150560717 47.114316206817676 H 0.0 **** 0.06
20966 C 79.57323071460121 104.2175038786055 73.18959686187142 C 0.0 **** -0.24
20967 H 79.59235479746224 103.12903830971572 73.12956853616086 H 0.0 **** 0.06
20968 H 80.1162387270071 104.54229876154608 74.0764609454198 H 0.0 **** 0.06
20969 H 78.54050767581742 104.55988568380346 73.24948150453017 H 0.0 **** 0.06
20970 H 80.04387716568624 104.63786394546176 72.30061050374064 H 0.0 **** 0.06
20971 C 94.5227709892414 72.40708708061669 45.66308656737558 C 0.0 **** -0.24
20972 H 95.40678931462301 71.82112664740816 45.912658812077034 H 0.0 **** 0.06
20973 H 94.4552769624087 72.5209015177659 44.58107213626805 H 0.0 **** 0.06
20974 H 94.59554127751323 73.39098721833639 46.12768473403179 H 0.0 **** 0.06
20975 H 93.63305404624043 71.89700505740396 46.03109122748457 H 0.0 **** 0.06
20976 C 68.78096172399975 6.217124340089526 51.36070088001034 C 0.0 **** -0.24
20977 H 68.85203409687725 7.163669751989488 51.89585398914942 H 0.0 **** 0.06
20978 H 68.60901389716591 5.410307136807077 52.073176379409304 H 0.0 **** 0.06
20979 H 69.71016335265486 6.034400236929201 50.82157604413942 H 0.0 **** 0.06
20980 H 67.95348983632488 6.261169462489406 50.653670043689196 H 0.0 **** 0.06
20981 C 112.17695332740044 83.9321451779823 112.17422993713723 C 0.0 **** -0.24
20982 H 111.24108827010349 84.40587910160278 112.47177689727889 H 0.0 **** 0.06
20983 H 112.97660707322405 84.67314872822976 112.17870660268375 H 0.0 **** 0.06
20984 H 112.07078545772973 83.51643040041938 111.17239463246366 H 0.0 **** 0.06
20985 H 112.41794388265978 83.13282613934956 112.87603767216419 H 0.0 **** 0.06
20986 C 10.340169677565882 60.487417843177745 68.586814293294 C 0.0 **** -0.24
20987 H 11.116845847271264 60.506850009844875 67.8221497131747 H 0.0 **** 0.06
20988 H 9.367007934466443 60.63187895761401 68.11844953038013 H 0.0 **** 0.06
20989 H 10.520352612880316 61.2853101210409 69.30742960567662 H 0.0 **** 0.06
20990 H 10.35859027533931 59.52508199311831 69.09876820432058 H 0.0 **** 0.06
20991 C 95.06265776843489 49.58052467545305 76.30220533775841 C 0.0 **** -0.24
20992 H 95.50757999118969 50.232578566163205 77.05393623123669 H 0.0 **** 0.06
20993 H 95.56595383441899 49.7325363556589 75.34671071115778 H 0.0 **** 0.06
20994 H 94.00401383967116 49.81780191054804 76.19755387567 H 0.0 **** 0.06
20995 H 95.1742628703143 48.54130162327685 76.61028016000245 H 0.0 **** 0.06
20996 C 18.07675765896616 37.95486102546862 30.50007765338927 C 0.0 **** -0.24
20997 H 18.4355150053822 37.11639058052907 29.903764962640054 H 0.0 **** 0.06
20998 H 18.343801730253602 38.89073661675893 30.009621019408073 H 0.0 **** 0.06
20999 H 18.53489579633154 37.91858509355717 31.488772211267587 H 0.0 **** 0.06
21000 H 16.993214609060175 37.89279885067836 30.599556891248966 H 0.0 **** 0.06
21001 C 92.86040777379904 80.69600890681502 9.087464382857517 C 0.0 **** -0.24
21002 H 92.38847611632653 80.65768714223432 8.104995340988468 H 0.0 **** 0.06
21003 H 92.10935125910908 80.51957635462193 9.857679986100297 H 0.0 **** 0.06
21004 H 93.31014326395166 81.67757050252331 9.236122368367678 H 0.0 **** 0.06
21005 H 93.6320804908863 79.92871058686254 9.149253477785708 H 0.0 **** 0.06
21006 C 59.009214910376436 89.5975075444129 98.55773943118464 C 0.0 **** -0.24
21007 H 58.60701702024917 89.87443414074659 99.53209095433573 H 0.0 **** 0.06
21008 H 58.82339493094056 88.53819077544199 98.37679363048463 H 0.0 **** 0.06
21009 H 60.08311446724836 89.7857629799168 98.54062005647336 H 0.0 **** 0.06
21010 H 58.52452524155968 90.18972600052768 97.78240560605025 H 0.0 **** 0.06
21011 C 46.63268078394029 32.44877853298294 50.274535957087494 C 0.0 **** -0.24
21012 H 46.28530440235605 32.65695215421948 49.26306093262161 H 0.0 **** 0.06
21013 H 47.660612151895776 32.794566517855856 50.38464578980643 H 0.0 **** 0.06
21014 H 46.58819092395119 31.37493867395756 50.45941447576541 H 0.0 **** 0.06
21015 H 45.99602483171893 32.9666519230027 50.991817446622576 H 0.0 **** 0.06
21016 C 86.76143152542139 0.8053555509725072 99.3989305794014 C 0.0 **** -0.24
21017 H 86.39970650533405 1.4222707264835037 100.2217124962001 H 0.0 **** 0.06
21018 H 86.62028324116432 -0.2474922633983283 99.64609269345306 H 0.0 **** 0.06
21019 H 87.8213326780371 1.0006949844212727 99.23642386003525 H 0.0 **** 0.06
21020 H 86.2044573524914 1.044238715969584 98.49324632840734 H 0.0 **** 0.06
21021 C 86.5053408607601 0.8397731827549908 68.10674625470742 C 0.0 **** -0.24
21022 H 85.56349299111221 1.2754234146798193 68.4404180416523 H 0.0 **** 0.06
21023 H 86.89720909061728 1.4197279810378927 67.270449548969 H 0.0 **** 0.06
21024 H 86.3368714798971 -0.18828363975092088 67.78986379907613 H 0.0 **** 0.06
21025 H 87.22266233341409 0.8554486447086926 68.92683437877406 H 0.0 **** 0.06
21026 C 96.25726229381297 77.212128170775 30.546647602552355 C 0.0 **** -0.24
21027 H 96.47963865660049 77.26998249678553 31.61168091787829 H 0.0 **** 0.06
21028 H 96.01464945666527 76.18269691533101 30.281876522586202 H 0.0 **** 0.06
21029 H 97.12616486032275 77.53943384152961 29.974877744336368 H 0.0 **** 0.06
21030 H 95.4077958114745 77.85584822673042 30.317919412288916 H 0.0 **** 0.06
21031 C 1.8734194766896906 91.1257477045765 69.52199191392432 C 0.0 **** -0.24
21032 H 2.2760145614078198 92.13753807994425 69.48112887396755 H 0.0 **** 0.06
21033 H 1.0490482251569944 91.03500693808195 68.81298790891711 H 0.0 **** 0.06
21034 H 1.5102747483559966 90.91953238905296 70.52887996451904 H 0.0 **** 0.06
21035 H 2.6552609910861804 90.41261611539346 69.2636985062976 H 0.0 **** 0.06
21036 C 27.549958124504883 62.95284790484254 3.3487379575914673 C 0.0 **** -0.24
21037 H 27.822622517707572 62.95754881654207 2.2936036554093278 H 0.0 **** 0.06
21038 H 27.259183904966562 63.95856849801925 3.653398216450398 H 0.0 **** 0.06
21039 H 28.40382510719968 62.62498287524531 3.942818060000988 H 0.0 **** 0.06
21040 H 26.715576215134064 62.270136460771056 3.50542309232776 H 0.0 **** 0.06
21041 C 59.23253232358086 59.53412236829047 51.76771211352053 C 0.0 **** -0.24
21042 H 59.8503267927755 58.87963799714811 52.383136056119554 H 0.0 **** 0.06
21043 H 59.00125087179814 60.44275436841977 52.323958633880665 H 0.0 **** 0.06
21044 H 58.307778026790494 59.02127980635575 51.50595782605012 H 0.0 **** 0.06
21045 H 59.77434286390447 59.793165678010695 50.858169765981415 H 0.0 **** 0.06
21046 C 94.42172676762587 77.75765697437805 50.8124510514898 C 0.0 **** -0.24
21047 H 93.51624484634979 77.73746605537741 51.41831998606813 H 0.0 **** 0.06
21048 H 94.277225968182 77.14467811990323 49.92256068926122 H 0.0 **** 0.06
21049 H 95.25570806571059 77.36323499742201 51.394083204347965 H 0.0 **** 0.06
21050 H 94.63833682093605 78.7833688782282 50.516288112824554 H 0.0 **** 0.06
21051 C 111.15770284758254 61.758526719016686 107.97088916433253 C 0.0 **** -0.24
21052 H 110.71944160969876 60.762842014764544 107.89844966434748 H 0.0 **** 0.06
21053 H 112.21366385689467 61.710790255523136 107.70636710230957 H 0.0 **** 0.06
21054 H 111.05438158633663 62.12719090564059 108.99153201832368 H 0.0 **** 0.06
21055 H 110.64179140139153 62.43250397987447 107.28700216946947 H 0.0 **** 0.06
21056 C 97.78662451754752 82.10997382158067 87.26754903206236 C 0.0 **** -0.24
21057 H 97.67781513286181 83.13782303099813 86.92063414044907 H 0.0 **** 0.06
21058 H 97.3713121687334 81.43036671458822 86.52298791445239 H 0.0 **** 0.06
21059 H 97.25453067183014 81.98599949552425 88.21015596661809 H 0.0 **** 0.06
21060 H 98.84292539556742 81.88565576399608 87.41442050246266 H 0.0 **** 0.06
21061 C 3.3868544380699177 46.666442858400785 70.02737018168867 C 0.0 **** -0.24
21062 H 3.256566469212544 46.286279726630255 71.04022129925852 H 0.0 **** 0.06
21063 H 4.210023379273537 47.38126072235514 70.01182201017309 H 0.0 **** 0.06
21064 H 2.47059358148681 47.158676726493866 69.70332052549148 H 0.0 **** 0.06
21065 H 3.6125151286085497 45.83886661241095 69.35468733580592 H 0.0 **** 0.06
21066 C 68.77050444728559 78.60530547126868 42.64392395903582 C 0.0 **** -0.24
21067 H 67.68640240354449 78.67032509326347 42.74030153114535 H 0.0 **** 0.06
21068 H 69.17739687460028 79.59863778620999 42.4550566901612 H 0.0 **** 0.06
21069 H 69.02215858477126 77.94569530943468 41.813730010122356 H 0.0 **** 0.06
21070 H 69.1939624687048 78.20809869020525 43.565491845315535 H 0.0 **** 0.06
21071 C 80.81136995244754 35.286258634560994 101.22656912831454 C 0.0 **** -0.24
21072 H 81.1303949233135 34.244871823553936 101.18024435162883 H 0.0 **** 0.06
21073 H 80.48653735537604 35.522373050769176 102.24033202263209 H 0.0 **** 0.06
21074 H 79.98488192633744 35.444303321244476 100.53379730208218 H 0.0 **** 0.06
21075 H 81.64443013927183 35.93364748715359 100.95127867654614 H 0.0 **** 0.06
21076 C 59.61834889293677 41.50098687406455 16.70063502374063 C 0.0 **** -0.24
21077 H 60.41491302709563 41.136473054599264 16.051688439828354 H 0.0 **** 0.06
21078 H 59.987826030234 41.569323016403416 17.724631752229755 H 0.0 **** 0.06
21079 H 58.77448525898043 40.812355230178525 16.66279329925402 H 0.0 **** 0.06
21080 H 59.2981706986534 42.4866721684466 16.362941648911516 H 0.0 **** 0.06
21081 C 49.17115127789349 11.369083406364325 12.403863530959882 C 0.0 **** -0.24
21082 H 49.69340785064139 12.162270526146187 12.93962719384239 H 0.0 **** 0.06
21083 H 48.43693322291469 10.90693819477383 13.063037246786834 H 0.0 **** 0.06
21084 H 49.890204293918394 10.61786110683704 12.076314697673798 H 0.0 **** 0.06
21085 H 48.665972418790865 11.790389289443624 11.534456210072705 H 0.0 **** 0.06
21086 C 3.730981332154995 38.462365747514525 66.68378151333582 C 0.0 **** -0.24
21087 H 3.9934728767581795 38.392041164153625 65.62824277581467 H 0.0 **** 0.06
21088 H 3.1898732747778666 39.39145428189272 66.8633224917757 H 0.0 **** 0.06
21089 H 4.640116586805023 38.44883065580018 67.28532228982311 H 0.0 **** 0.06
21090 H 3.1014538985456017 37.61622511346101 66.9586698753119 H 0.0 **** 0.06
21091 C 112.40258852901694 91.66615423213551 79.29891454411217 C 0.0 **** -0.24
21092 H 112.27606149817825 91.44060625667743 80.3568537192437 H 0.0 **** 0.06
21093 H 113.03542192088261 92.54650797898623 79.18743558478246 H 0.0 **** 0.06
21094 H 111.42791580968841 91.86068584734011 78.84940032618863 H 0.0 **** 0.06
21095 H 112.86916541910591 90.8166662991982 78.79956528806451 H 0.0 **** 0.06
21096 C 15.925985854465793 82.15074727687332 89.6843923554641 C 0.0 **** -0.24
21097 H 15.099346887186869 82.64797529316496 89.17692638956129 H 0.0 **** 0.06
21098 H 15.966631024217577 81.10619650931858 89.3735964036839 H 0.0 **** 0.06
21099 H 15.775182739334028 82.20337813877103 90.76219416913793 H 0.0 **** 0.06
21100 H 16.86169109593054 82.64482490804204 89.42365616893852 H 0.0 **** 0.06
21101 C 41.00229823956272 91.66345406727362 64.68143284104951 C 0.0 **** -0.24
21102 H 40.314407207615915 90.82404196837678 64.77833276209108 H 0.0 **** 0.06
21103 H 41.73486703140378 91.44331214956361 63.90437689825322 H 0.0 **** 0.06
21104 H 41.515261122897115 91.82374343545257 65.62991626624265 H 0.0 **** 0.06
21105 H 40.44583084539275 92.56070786760418 64.41234365226168 H 0.0 **** 0.06
21106 C 83.81302689829866 7.54372518866964 62.056893983887846 C 0.0 **** -0.24
21107 H 83.56056107593045 8.06010931507393 61.130586879749785 H 0.0 **** 0.06
21108 H 82.9002164374267 7.185370265759303 62.532670397644324 H 0.0 **** 0.06
21109 H 84.3273273150115 8.23291783265168 62.72712230640019 H 0.0 **** 0.06
21110 H 84.46405980839685 6.698287944634728 61.83585016447165 H 0.0 **** 0.06
21111 C 34.00129351360113 31.96438963465306 59.46544116020356 C 0.0 **** -0.24
21112 H 33.59915533389261 32.58020239202858 60.27038337281744 H 0.0 **** 0.06
21113 H 33.64622877102751 32.34224235172405 58.50657842159159 H 0.0 **** 0.06
21114 H 33.66896910118663 30.93484609763908 59.596288196811535 H 0.0 **** 0.06
21115 H 35.08973246864477 32.00106516957726 59.49029783527916 H 0.0 **** 0.06
21116 C 7.8947727262665595 111.99471694607692 55.8242770913859 C 0.0 **** -0.24
21117 H 7.0566369833142915 112.64183548215189 55.563364203977315 H 0.0 **** 0.06
21118 H 7.6099145559103825 110.95272528986104 55.67263705052557 H 0.0 **** 0.06
21119 H 8.161684056709309 112.15081126758511 56.86919682896417 H 0.0 **** 0.06
21120 H 8.748863892960829 112.23431124004992 55.19073999607511 H 0.0 **** 0.06
21121 C 33.937350068568634 74.12229373011533 5.176160939470151 C 0.0 **** -0.24
21122 H 33.2788629107373 73.78833687876482 4.374137941373078 H 0.0 **** 0.06
21123 H 34.09728783911055 73.3049274528326 5.879983161925395 H 0.0 **** 0.06
21124 H 33.48072407826285 74.96540505120038 5.694558850041403 H 0.0 **** 0.06
21125 H 34.89425117879759 74.43083858001762 4.755009259329142 H 0.0 **** 0.06
21126 C 30.313252547955358 84.44893641787635 40.134053081070135 C 0.0 **** -0.24
21127 H 31.03721648862461 85.14824115136497 39.71612189551274 H 0.0 **** 0.06
21128 H 29.48745682434867 85.00342576580627 40.58100994253749 H 0.0 **** 0.06
21129 H 30.79747732608854 83.83970667332687 40.898144011415525 H 0.0 **** 0.06
21130 H 29.932520927009705 83.8040171002032 39.342701174384786 H 0.0 **** 0.06
21131 C 67.2270838029412 66.24368007056037 46.5975410659673 C 0.0 **** -0.24
21132 H 67.07401620276494 65.89189822608418 47.61825468219398 H 0.0 **** 0.06
21133 H 66.85483586080755 67.26452689282709 46.506109786543526 H 0.0 **** 0.06
21134 H 66.68857619665084 65.59664603483571 45.90588736406338 H 0.0 **** 0.06
21135 H 68.29066315194643 66.22235976636037 46.36224393185628 H 0.0 **** 0.06
21136 C 17.96946739368165 87.21599798203255 22.36101312962691 C 0.0 **** -0.24
21137 H 18.691159368026728 86.45210785430004 22.65051263026558 H 0.0 **** 0.06
21138 H 18.35603027340379 87.77590846794345 21.509558629192213 H 0.0 **** 0.06
21139 H 17.80320171799907 87.89370083514308 23.198184521555874 H 0.0 **** 0.06
21140 H 17.028037883128373 86.74026615451177 22.086604522347443 H 0.0 **** 0.06
21141 C 59.46449504128486 16.009089375061023 81.62677059937653 C 0.0 **** -0.24
21142 H 58.75802571999856 15.546042454923793 80.9367284800714 H 0.0 **** 0.06
21143 H 58.92466887128694 16.653337329165083 82.32037613463655 H 0.0 **** 0.06
21144 H 60.184122617665025 16.603355588110105 81.06356795792817 H 0.0 **** 0.06
21145 H 59.98947105021094 15.233734294858664 82.18393487370233 H 0.0 **** 0.06
21146 C 48.12426967150597 83.49373454428118 59.65620043012546 C 0.0 **** -0.24
21147 H 47.2148906713976 83.28699757667235 59.092073634623 H 0.0 **** 0.06
21148 H 48.235730464316646 84.57138602935464 59.780884936580996 H 0.0 **** 0.06
21149 H 48.983870805585525 83.0991002897606 59.11601991293373 H 0.0 **** 0.06
21150 H 48.0602373380718 83.01917973315975 60.63511357806359 H 0.0 **** 0.06
21151 C 63.79313063255353 62.27033046133074 62.55473425057019 C 0.0 **** -0.24
21152 H 63.37840304336322 61.26600881902652 62.64544532983828 H 0.0 **** 0.06
21153 H 63.044289722991834 62.934508415317346 62.1214890405023 H 0.0 **** 0.06
21154 H 64.67224858683775 62.24288003799952 61.91110821593776 H 0.0 **** 0.06
21155 H 64.07730412544632 62.63667911646787 63.54150449300559 H 0.0 **** 0.06
21156 C 66.397605352883 89.61668471120302 29.927592075729677 C 0.0 **** -0.24
21157 H 66.34191338092722 90.56944218580236 30.455642336921926 H 0.0 **** 0.06
21158 H 66.73461744721882 88.840612198945 30.615000768111784 H 0.0 **** 0.06
21159 H 67.10076498867184 89.7002157790526 29.099436034370456 H 0.0 **** 0.06
21160 H 65.41171494000818 89.35777588836132 29.541806266868832 H 0.0 **** 0.06
21161 C 8.610576280030216 15.823493229855714 40.271125647175204 C 0.0 **** -0.24
21162 H 8.708363586154803 15.638078716082386 41.339941528783314 H 0.0 **** 0.06
21163 H 9.43353698520599 16.454457726234065 39.93509903716533 H 0.0 **** 0.06
21164 H 7.663193316416368 16.325405553892576 40.074029376301915 H 0.0 **** 0.06
21165 H 8.637423178220729 14.87466842774925 39.734384383494174 H 0.0 **** 0.06
21166 C 59.12243791173609 26.308408703041664 74.75723330285837 C 0.0 **** -0.24
21167 H 59.83217051991459 26.361909164836632 75.58265059337762 H 0.0 **** 0.06
21168 H 59.57034843086647 26.74710101532071 73.86452802159906 H 0.0 **** 0.06
21169 H 58.218966388005335 26.859423149193674 75.01902843905188 H 0.0 **** 0.06
21170 H 58.86877668929254 25.266409579677585 74.56219688760902 H 0.0 **** 0.06
21171 C 9.618840325497487 89.58801748275022 23.392814339661584 C 0.0 **** -0.24
21172 H 8.82275702435416 89.53381089436624 24.13508678813116 H 0.0 **** 0.06
21173 H 9.307201715634989 89.06964719396359 22.486290218389712 H 0.0 **** 0.06
21174 H 10.518250646146356 89.11708414765451 23.790179773309163 H 0.0 **** 0.06
21175 H 9.828531275593093 90.63315683275016 23.160366582250617 H 0.0 **** 0.06
21176 C 111.38505248663685 50.31484768431712 13.31735177839439 C 0.0 **** -0.24
21177 H 110.56602537204859 49.653090246457886 13.035697617850396 H 0.0 **** 0.06
21178 H 111.30321344840661 51.25067222691577 12.76542684748674 H 0.0 **** 0.06
21179 H 112.3350138480863 49.83467519274681 13.081086630477312 H 0.0 **** 0.06
21180 H 111.3374163692583 50.517104502068136 14.386949983091288 H 0.0 **** 0.06
21181 C 21.5384208993749 102.0425629361431 10.174941993476068 C 0.0 **** -0.24
21182 H 21.381179203282954 103.03899260429864 9.760358548238969 H 0.0 **** 0.06
21183 H 22.46965371974011 101.63046071991141 9.786086500181057 H 0.0 **** 0.06
21184 H 20.707982764859395 101.39656480848453 9.890842912112475 H 0.0 **** 0.06
21185 H 21.59492326112087 102.10648535830643 11.26151724934283 H 0.0 **** 0.06
21186 C 46.41446169755719 42.55275922224091 52.382527686436816 C 0.0 **** -0.24
21187 H 46.222520108536465 42.85986049547118 53.41017527856002 H 0.0 **** 0.06
21188 H 45.5133759236356 42.698317714663105 51.78606596193785 H 0.0 **** 0.06
21189 H 46.69561511725531 41.500398483314385 52.36382076248725 H 0.0 **** 0.06
21190 H 47.224492665988116 43.153631562510135 51.96893893037142 H 0.0 **** 0.06
21191 C 9.276404395263441 64.4736685029734 49.59322343572842 C 0.0 **** -0.24
21192 H 9.329726142486649 63.5211664826316 50.11974887532091 H 0.0 **** 0.06
21193 H 9.99709086058131 65.16806715806783 50.024711438816155 H 0.0 **** 0.06
21194 H 8.271670151997455 64.88571716484768 49.68941810563348 H 0.0 **** 0.06
21195 H 9.50630778616241 64.3185809687337 48.53915196281338 H 0.0 **** 0.06
21196 C 100.18355438852325 107.03161312515621 95.87527839513908 C 0.0 **** -0.24
21197 H 100.84856665037196 107.62841400844827 95.25130742855774 H 0.0 **** 0.06
21198 H 99.74281892596997 107.66447852375447 96.64586651836859 H 0.0 **** 0.06
21199 H 100.74956181230894 106.22673557731633 96.34487838846121 H 0.0 **** 0.06
21200 H 99.39163256866871 106.60612111617976 95.25771070275815 H 0.0 **** 0.06
21201 C 0.5834645081072933 29.481558031487502 59.1861502895002 C 0.0 **** -0.24
21202 H 1.2909631730352498 30.29630061906164 59.03017407959903 H 0.0 **** 0.06
21203 H -0.43010006170646875 29.8421520953207 59.0097978217749 H 0.0 **** 0.06
21204 H 0.6676386713865696 29.1200700133356 60.21196587892346 H 0.0 **** 0.06
21205 H 0.8068018618121773 28.66920935268142 58.49482227854046 H 0.0 **** 0.06
21206 C 18.05610973114751 27.553403409045835 15.615247744327434 C 0.0 **** -0.24
21207 H 19.07970740960649 27.924639413861385 15.653938211586023 H 0.0 **** 0.06
21208 H 18.05447277724449 26.53022260688548 15.236050034571406 H 0.0 **** 0.06
21209 H 17.464943445946364 28.18652601649108 14.95423448491482 H 0.0 **** 0.06
21210 H 17.62525721868235 27.56978333677042 16.616588459351533 H 0.0 **** 0.06
21211 C 36.735842447249915 50.21818889109204 29.619357309397373 C 0.0 **** -0.24
21212 H 37.07068738200158 49.95750956449605 30.623867939292296 H 0.0 **** 0.06
21213 H 36.01978957190784 49.474116755179395 29.271315225337858 H 0.0 **** 0.06
21214 H 37.59311585943377 50.242258577897346 28.945967092067264 H 0.0 **** 0.06
21215 H 36.26176441728246 51.19950176377116 29.638656450056317 H 0.0 **** 0.06
21216 C 42.52677968951886 112.30408641944928 95.11011987714929 C 0.0 **** -0.24
21217 H 43.6045835029635 112.14566722320454 95.14427653953817 H 0.0 **** 0.06
21218 H 42.02585747379264 111.35553131896332 94.91607463001867 H 0.0 **** 0.06
21219 H 42.28941779492423 113.01072646987525 94.31383308617751 H 0.0 **** 0.06
21220 H 42.18925425760486 112.70624363172529 96.06499134031827 H 0.0 **** 0.06
21221 C 1.7692770003241467 13.013397191460228 98.72827516049034 C 0.0 **** -0.24
21222 H 2.8055963534275214 12.998433820405282 99.0643981025421 H 0.0 **** 0.06
21223 H 1.7395043962623156 12.943584731935388 97.64053288865193 H 0.0 **** 0.06
21224 H 1.2970523142191457 13.942231706286435 99.04601184278724 H 0.0 **** 0.06
21225 H 1.2347791302514697 12.167145580563442 99.16175724815454 H 0.0 **** 0.06
21226 C 107.76655032866209 83.68937051378617 62.28320469900319 C 0.0 **** -0.24
21227 H 108.2428151659019 83.51586922988301 63.24797797662259 H 0.0 **** 0.06
21228 H 107.3184192992962 84.68381902518925 62.27284960952451 H 0.0 **** 0.06
21229 H 106.99295001547047 82.94015681041404 62.12022717951294 H 0.0 **** 0.06
21230 H 108.51314927228587 83.620225603682 61.491633207149334 H 0.0 **** 0.06
21231 C 100.61989185420165 21.581297800083718 85.46697867335297 C 0.0 **** -0.24
21232 H 101.18598610814638 20.6962624260087 85.75555277283712 H 0.0 **** 0.06
21233 H 99.66839039842432 21.278160282757995 85.03004616362057 H 0.0 **** 0.06
21234 H 101.18920637367742 22.154640456058814 84.73568082700382 H 0.0 **** 0.06
21235 H 100.43550470200407 22.197293559871667 86.34727635430974 H 0.0 **** 0.06
21236 C 54.95860773279012 28.89404153467811 11.712362210130493 C 0.0 **** -0.24
21237 H 55.278671170389444 29.85583479479314 11.310927855975308 H 0.0 **** 0.06
21238 H 55.655875444296576 28.573910726664025 12.48705597830454 H 0.0 **** 0.06
21239 H 54.94124949353284 28.15392200177152 10.912205868497296 H 0.0 **** 0.06
21240 H 53.960501197861724 28.991267141594818 12.139239129316593 H 0.0 **** 0.06
21241 C 100.94578828651959 66.50203641444628 5.474962635754919 C 0.0 **** -0.24
21242 H 101.4185392698896 66.87175572115368 6.385287069992996 H 0.0 **** 0.06
21243 H 99.86520407199816 66.46715392243641 5.61572623296126 H 0.0 **** 0.06
21244 H 101.31651340872696 65.50193093938145 5.253584610233668 H 0.0 **** 0.06
21245 H 101.18287734129058 67.16945895108026 4.645853244170626 H 0.0 **** 0.06
21246 C 71.54681850808095 40.29222851968448 11.920464599183777 C 0.0 **** -0.24
21247 H 71.48152200036748 40.652347690121495 10.893290323882546 H 0.0 **** 0.06
21248 H 72.23844576397715 39.450038941274556 11.966778069916515 H 0.0 **** 0.06
21249 H 70.56057509526946 39.97229587004555 12.256292536800853 H 0.0 **** 0.06
21250 H 71.90716922551786 41.09500707247614 12.564398907802175 H 0.0 **** 0.06
21251 C 23.102263426708177 80.14090340097238 8.805546726280951 C 0.0 **** -0.24
21252 H 23.222926691371704 81.03074767243655 9.424384353721166 H 0.0 **** 0.06
21253 H 22.793281460546357 79.30292268923642 9.431568247560605 H 0.0 **** 0.06
21254 H 24.049165184289105 79.9037289019549 8.320958565675966 H 0.0 **** 0.06
21255 H 22.34197811112994 80.32700476256073 8.04684986825589 H 0.0 **** 0.06
21256 C 0.06035482502061029 17.37916613245963 69.82664063776926 C 0.0 **** -0.24
21257 H -1.0001925883246798 17.396925864452896 69.57592734319437 H 0.0 **** 0.06
21258 H 0.1794569777038646 17.4528744182671 70.90783589480264 H 0.0 **** 0.06
21259 H 0.5609164030238674 18.220225874006076 69.34692196414028 H 0.0 **** 0.06
21260 H 0.5003858869522446 16.446414306924055 69.47438637529501 H 0.0 **** 0.06
21261 C 40.998030677931865 92.48895147573103 47.616642122897005 C 0.0 **** -0.24
21262 H 41.03841639284212 91.4005649483968 47.556832033736015 H 0.0 **** 0.06
21263 H 41.94013474897838 92.86463328287547 48.01737589467429 H 0.0 **** 0.06
21264 H 40.179446777181624 92.78594296509874 48.27122730951007 H 0.0 **** 0.06
21265 H 40.836377362224084 92.90094243094418 46.62140097123327 H 0.0 **** 0.06
21266 C 32.65236690182249 65.61318282837777 49.98041660275587 C 0.0 **** -0.24
21267 H 33.010422071742795 65.54967003556283 48.95177957417121 H 0.0 **** 0.06
21268 H 33.46914247730834 65.37978936570798 50.663324746213476 H 0.0 **** 0.06
21269 H 31.84093520430801 64.90128980465272 50.12734256670481 H 0.0 **** 0.06
21270 H 32.29154247010217 66.62229681115147 50.17671491804788 H 0.0 **** 0.06
21271 C 88.85697309599163 59.039525203686814 10.391271337495652 C 0.0 **** -0.24
21272 H 88.0599770924743 59.42556111579966 11.02668224967448 H 0.0 **** 0.06
21273 H 88.69094484177867 59.363800835644106 9.363782971200578 H 0.0 **** 0.06
21274 H 88.85873989618011 57.94986030016414 10.43280111698968 H 0.0 **** 0.06
21275 H 89.81700325873379 59.41827443549263 10.742178025638509 H 0.0 **** 0.06
21276 C 11.868853341265677 24.452902687042126 73.90263438759706 C 0.0 **** -0.24
21277 H 12.801837153773448 23.931064265720437 73.69028033406067 H 0.0 **** 0.06
21278 H 11.93732203942973 24.93499383753479 74.8791069633852 H 0.0 **** 0.06
21279 H 11.045784054083853 23.73896188585536 73.90761617828966 H 0.0 **** 0.06
21280 H 11.691850612969688 25.207689314230237 73.13683380247238 H 0.0 **** 0.06
21281 C 26.19161028361301 107.17465282734317 102.97333051471236 C 0.0 **** -0.24
21282 H 26.713499733050703 107.5354866634328 103.85894706041339 H 0.0 **** 0.06
21283 H 26.790671122989444 107.38755097171962 102.08763592183354 H 0.0 **** 0.06
21284 H 25.22833131757014 107.67800709624196 102.88968535541514 H 0.0 **** 0.06
21285 H 26.035154479984563 106.0991622979131 103.05606555383281 H 0.0 **** 0.06
21286 C 75.7175202766202 84.78909997329691 84.07721261063637 C 0.0 **** -0.24
21287 H 74.68548625168236 85.0209446739903 83.81681269955305 H 0.0 **** 0.06
21288 H 76.16241398085259 84.17804915996447 83.29167909722042 H 0.0 **** 0.06
21289 H 75.74048108612789 84.24278340797031 85.02009510410812 H 0.0 **** 0.06
21290 H 76.28312726362603 85.71520663641053 84.18105185907149 H 0.0 **** 0.06
21291 C 19.822872161825558 69.90117626982607 30.186097739435354 C 0.0 **** -0.24
21292 H 20.372649627323653 70.81981207338771 29.98157541450749 H 0.0 **** 0.06
21293 H 18.962402283094377 70.12515550290823 30.816854665032594 H 0.0 **** 0.06
21294 H 20.475699283456606 69.1943113726166 30.698993636755546 H 0.0 **** 0.06
21295 H 19.48197015536948 69.46482164019517 29.247306580468234 H 0.0 **** 0.06
21296 C 41.50308120808265 85.70593338192018 24.11920693365505 C 0.0 **** -0.24
21297 H 42.41851756015254 85.39795081310078 23.612271521565702 H 0.0 **** 0.06
21298 H 40.64016425446923 85.40694853673358 23.522781853593656 H 0.0 **** 0.06
21299 H 41.50318201865608 86.78852071353376 24.241864948983235 H 0.0 **** 0.06
21300 H 41.451925936830975 85.22786946384784 25.0974842067409 H 0.0 **** 0.06
21301 C 81.92300699889898 81.47618535079542 47.843831083815246 C 0.0 **** -0.24
21302 H 82.56513320294383 82.34932587633182 47.96115529714393 H 0.0 **** 0.06
21303 H 82.48595950028565 80.67185720808996 47.36921000579247 H 0.0 **** 0.06
21304 H 81.06631740694866 81.73630457702112 47.221911204977175 H 0.0 **** 0.06
21305 H 81.5746178854177 81.14725374173892 48.82304782734781 H 0.0 **** 0.06
21306 C 110.44705141967461 56.749341351504796 9.874160917349016 C 0.0 **** -0.24
21307 H 110.01120636117668 56.162543551980946 10.682576529278592 H 0.0 **** 0.06
21308 H 110.60988566943772 57.77219583941576 10.21603688864802 H 0.0 **** 0.06
21309 H 109.76724996357827 56.75423967593704 9.022136048996828 H 0.0 **** 0.06
21310 H 111.3984514648386 56.3081164605438 9.577877417473857 H 0.0 **** 0.06
21311 C 61.06709049262338 29.125729529674203 35.118519937715035 C 0.0 **** -0.24
21312 H 60.86258629723608 29.858957351454677 34.33827421213809 H 0.0 **** 0.06
21313 H 61.90988208798052 28.50239992225923 34.817762586160114 H 0.0 **** 0.06
21314 H 60.18749438312585 28.500064893679394 35.26790467843544 H 0.0 **** 0.06
21315 H 61.309288446398455 29.641982518928245 36.047142766848545 H 0.0 **** 0.06
21316 C 74.3527717253757 1.8714347200594936 78.91326736199241 C 0.0 **** -0.24
21317 H 74.63320818785621 0.845618033418142 79.15383532780405 H 0.0 **** 0.06
21318 H 74.66088436673829 2.101781721351019 77.89282955590758 H 0.0 **** 0.06
21319 H 74.84505088838864 2.5547349692623875 79.60434138996436 H 0.0 **** 0.06
21320 H 73.27204643716294 1.982869508656588 78.99995367862061 H 0.0 **** 0.06
21321 C 39.83255118138953 62.94399676901967 56.39950965857412 C 0.0 **** -0.24
21322 H 39.6271826030673 63.99171198290441 56.6191843487058 H 0.0 **** 0.06
21323 H 38.89102826411414 62.40121666194775 56.30899553012716 H 0.0 **** 0.06
21324 H 40.42518693377815 62.51361103960961 57.20601589567477 H 0.0 **** 0.06
21325 H 40.38499427188822 62.87148760542038 55.46259693511149 H 0.0 **** 0.06
21326 C 3.700340684934858 68.49562496361037 18.164947974378777 C 0.0 **** -0.24
21327 H 2.9476890498017383 69.00700187566116 18.76544658992495 H 0.0 **** 0.06
21328 H 3.3694264403851406 67.47718196732836 17.95842899639615 H 0.0 **** 0.06
21329 H 4.643439559225385 68.46782586790124 18.71101127637982 H 0.0 **** 0.06
21330 H 3.8401498200909288 69.02973791010453 17.22494256238062 H 0.0 **** 0.06
21331 C 67.15399286129463 79.97405809035939 23.833150475257387 C 0.0 **** -0.24
21332 H 68.22224780346431 80.19378791286272 23.84112878120471 H 0.0 **** 0.06
21333 H 66.97339648462003 79.02812501525901 24.345311628841987 H 0.0 **** 0.06
21334 H 66.80633969985396 79.90190181894314 22.80268886451774 H 0.0 **** 0.06
21335 H 66.61594201935645 80.77219579970443 24.343834167722108 H 0.0 **** 0.06
21336 C 100.5702237147265 53.99013647620251 107.0080688807977 C 0.0 **** -0.24
21337 H 101.01778846352428 54.94091633679477 106.72147378776327 H 0.0 **** 0.06
21338 H 99.56431580301202 54.163304102844876 107.39106843690959 H 0.0 **** 0.06
21339 H 101.17815165809321 53.52015026701224 107.78091941563596 H 0.0 **** 0.06
21340 H 100.51994745648386 53.33496914619377 106.13778069979386 H 0.0 **** 0.06
21341 C 69.6665277667862 69.62127525928861 26.867432967720276 C 0.0 **** -0.24
21342 H 68.66945128426806 69.29409110307029 26.570114130259384 H 0.0 **** 0.06
21343 H 69.60678445036518 70.13826660880324 27.82532601379853 H 0.0 **** 0.06
21344 H 70.06603149798877 70.29780502346176 26.11289897086789 H 0.0 **** 0.06
21345 H 70.32012487942478 68.75453949291762 26.96149820058517 H 0.0 **** 0.06
21346 C 38.70838460591296 51.92788641847807 76.49456030423659 C 0.0 **** -0.24
21347 H 37.95037282810201 52.29249836363533 75.80208459784254 H 0.0 **** 0.06
21348 H 38.24248367379471 51.27361849917071 77.23149870527618 H 0.0 **** 0.06
21349 H 39.17314381500339 52.77364792913636 77.00165275579974 H 0.0 **** 0.06
21350 H 39.46708162704191 51.37265697679737 75.9428497847621 H 0.0 **** 0.06
21351 C 100.14264649924118 89.79932049417789 86.89573766036304 C 0.0 **** -0.24
21352 H 99.23877905331167 89.25719681003943 86.61782051164823 H 0.0 **** 0.06
21353 H 100.68470870318967 90.08853607987885 85.99444558879063 H 0.0 **** 0.06
21354 H 100.77514536939441 89.1592350258691 87.51074754360346 H 0.0 **** 0.06
21355 H 99.8712619338423 90.69186113368727 87.4587891402264 H 0.0 **** 0.06
21356 C 8.00750482033763 83.19204334964621 14.038736689561091 C 0.0 **** -0.24
21357 H 7.521266605123657 82.41107326558395 14.623270273684156 H 0.0 **** 0.06
21358 H 7.44554787793038 83.36102113789119 13.120345011641078 H 0.0 **** 0.06
21359 H 9.023398730319087 82.88250768877975 13.791363122746617 H 0.0 **** 0.06
21360 H 8.039806067977338 84.11357130633004 14.619968350172613 H 0.0 **** 0.06
21361 C 92.22660071604005 97.10170573344223 32.06732599388684 C 0.0 **** -0.24
21362 H 92.00701835448726 97.53054890098335 33.04541420680354 H 0.0 **** 0.06
21363 H 91.56508761666703 96.25366899411321 31.88670603151823 H 0.0 **** 0.06
21364 H 93.2627325264144 96.76653415467632 32.04204386845905 H 0.0 **** 0.06
21365 H 92.0691520172177 97.85670487914041 31.29680694140049 H 0.0 **** 0.06
21366 C 33.37759420011338 58.155186738711876 41.268585601388175 C 0.0 **** -0.24
21367 H 34.01485449933311 58.96601320103065 41.62096767623466 H 0.0 **** 0.06
21368 H 33.5117450390307 57.28359256087012 41.90953532891614 H 0.0 **** 0.06
21369 H 33.64985928207446 57.898021327671046 40.24460996441342 H 0.0 **** 0.06
21370 H 32.335834434672236 58.47270504446732 41.29883528863142 H 0.0 **** 0.06
21371 C 0.55253582370662 39.36437078505156 4.933476538851849 C 0.0 **** -0.24
21372 H 0.8741798113129136 39.91344666827197 4.048564563529652 H 0.0 **** 0.06
21373 H -0.5360893617916673 39.358817504562055 4.982074089766783 H 0.0 **** 0.06
21374 H 0.9538973010249236 39.845439221017614 5.825913406571928 H 0.0 **** 0.06
21375 H 0.9191367345776769 38.33881400105648 4.877677692612679 H 0.0 **** 0.06
21376 C 89.39145959788115 51.57806448939826 24.441592431020254 C 0.0 **** -0.24
21377 H 89.18501435518101 52.1546342521751 23.539594043344326 H 0.0 **** 0.06
21378 H 88.70309303333227 50.73461331190393 24.49793062774812 H 0.0 **** 0.06
21379 H 89.26035965815271 52.2141627454194 25.316105505771507 H 0.0 **** 0.06
21380 H 90.41669429863805 51.20992784029727 24.41002379617292 H 0.0 **** 0.06
21381 C 78.03357180593076 0.4147917040650668 73.71662379485849 C 0.0 **** -0.24
21382 H 77.3213217832822 -0.32790392720697525 73.3580035774155 H 0.0 **** 0.06
21383 H 78.8143564186025 -0.08108570670769666 74.29441479791399 H 0.0 **** 0.06
21384 H 77.51841143124557 1.1382254393986955 74.34698535395341 H 0.0 **** 0.06
21385 H 78.4821621743474 0.9279349212042547 72.86461015387243 H 0.0 **** 0.06
21386 C 3.925128637344116 59.506499291437194 32.47217780777613 C 0.0 **** -0.24
21387 H 3.5497403657926156 59.239132663877626 31.48508964316529 H 0.0 **** 0.06
21388 H 4.97993009081155 59.24074184991798 32.54428387170515 H 0.0 **** 0.06
21389 H 3.361717937637266 58.96584461823801 33.23289018157553 H 0.0 **** 0.06
21390 H 3.808427240940233 60.57918405216407 32.627008637822904 H 0.0 **** 0.06
21391 C 12.45146945575624 65.47256394011947 93.50478487064228 C 0.0 **** -0.24
21392 H 12.8547829246519 65.06701427691519 92.57686293960873 H 0.0 **** 0.06
21393 H 12.959404833618024 65.01291569116074 94.35262537992628 H 0.0 **** 0.06
21394 H 11.38374860734858 65.25746914258508 93.56041652163955 H 0.0 **** 0.06
21395 H 12.607383336934362 66.5502845418963 93.52779475497661 H 0.0 **** 0.06
21396 C 13.230431691917175 26.109745964658828 70.75802415218263 C 0.0 **** -0.24
21397 H 12.841936950882584 26.315448681608586 69.7605139379288 H 0.0 **** 0.06
21398 H 14.318382616281653 26.18168844655355 70.74551398234814 H 0.0 **** 0.06
21399 H 12.9351262748728 25.10660644131184 71.06444568628132 H 0.0 **** 0.06
21400 H 12.826069682263011 26.837972688423065 71.4623228766626 H 0.0 **** 0.06
21401 C 82.99297995068534 94.48528782832074 7.049912672700032 C 0.0 **** -0.24
21402 H 82.84051676655534 95.16296008249384 6.210103370576405 H 0.0 **** 0.06
21403 H 82.69610979369992 93.47632454659913 6.7608682375011995 H 0.0 **** 0.06
21404 H 82.39085309294137 94.81370420484973 7.896221858704251 H 0.0 **** 0.06
21405 H 84.04616878864343 94.48785707640269 7.330239344467543 H 0.0 **** 0.06
21406 C 73.8926825297199 0.3932574427854263 68.45041594233655 C 0.0 **** -0.24
21407 H 74.7640133951551 -0.19254109968989042 68.7442441487295 H 0.0 **** 0.06
21408 H 73.00441049956825 -0.23768948648927335 68.48120816074132 H 0.0 **** 0.06
21409 H 74.03447690339709 0.772634462906467 67.43809046924338 H 0.0 **** 0.06
21410 H 73.76972301006387 1.2294371444073704 69.13815412454647 H 0.0 **** 0.06
21411 C 76.33881207342347 70.61530884255274 30.572583208182266 C 0.0 **** -0.24
21412 H 76.52512711736193 69.59386854233557 30.241245325927764 H 0.0 **** 0.06
21413 H 76.03780005588442 70.60742096537598 31.620846542064896 H 0.0 **** 0.06
21414 H 75.54237738795018 71.05300419198844 29.968867140379132 H 0.0 **** 0.06
21415 H 77.24738186561831 71.20604840940126 30.458574214155988 H 0.0 **** 0.06
21416 C 105.91200528077806 91.48583076982746 106.7929124043304 C 0.0 **** -0.24
21417 H 105.27614178959416 90.66773558019958 106.4544758915309 H 0.0 **** 0.06
21418 H 106.47966083941513 91.16653205651477 107.66710512041507 H 0.0 **** 0.06
21419 H 105.29170192048295 92.34313802324684 107.05582959300145 H 0.0 **** 0.06
21420 H 106.59986259891197 91.76478823329904 105.99478432824097 H 0.0 **** 0.06
21421 C 11.291327571439922 58.65590573395377 3.0505858980459664 C 0.0 **** -0.24
21422 H 10.704058870604314 58.454038606748185 3.946520348088214 H 0.0 **** 0.06
21423 H 12.182608112963322 59.222067136989324 3.3211125174839538 H 0.0 **** 0.06
21424 H 10.692688812357801 59.23439733356386 2.3473907181129903 H 0.0 **** 0.06
21425 H 11.585296175896616 57.71303146410722 2.5885685767331097 H 0.0 **** 0.06
21426 C 71.37045031443125 28.486609090143332 48.87651279140914 C 0.0 **** -0.24
21427 H 70.31740489225928 28.215240225442216 48.806579751774905 H 0.0 **** 0.06
21428 H 71.96987963683111 27.758398131699778 48.32860150826082 H 0.0 **** 0.06
21429 H 71.67498732892057 28.49419879811518 49.92336475166911 H 0.0 **** 0.06
21430 H 71.51941794442794 29.477208994995664 48.44727061943371 H 0.0 **** 0.06
21431 C 57.621576512983296 65.88129690699978 66.86590652040084 C 0.0 **** -0.24
21432 H 57.76719918384569 65.81890745665572 65.78652285318759 H 0.0 **** 0.06
21433 H 58.24604891545215 65.13651031972284 67.35917373097374 H 0.0 **** 0.06
21434 H 56.574346899963956 65.69171724290808 67.1018113495752 H 0.0 **** 0.06
21435 H 57.89850122183299 66.87615300991439 67.21290127212205 H 0.0 **** 0.06
21436 C 96.17433254548158 16.0281376945467 105.18123364213378 C 0.0 **** -0.24
21437 H 97.24774550384026 16.074844163626267 105.36545234198095 H 0.0 **** 0.06
21438 H 95.78633006336815 17.0369215198466 105.03512841025716 H 0.0 **** 0.06
21439 H 95.67893700370635 15.567343024268098 106.03501572132507 H 0.0 **** 0.06
21440 H 95.98568767062909 15.434080779252383 104.28694739601693 H 0.0 **** 0.06
21441 C 97.5036341745548 34.16233954080731 9.468832947505675 C 0.0 **** -0.24
21442 H 97.3421388875712 33.81155332879982 10.488253228575218 H 0.0 **** 0.06
21443 H 98.49790410321464 33.864413743984585 9.134859951872826 H 0.0 **** 0.06
21444 H 97.42218874276068 35.24912638392149 9.441677649938796 H 0.0 **** 0.06
21445 H 96.75249897263836 33.72618095669655 8.81108000794228 H 0.0 **** 0.06
21446 C 2.3125982246247077 50.75048535926703 11.197063850201005 C 0.0 **** -0.24
21447 H 1.8719590271827542 49.84739301559404 11.62112491799338 H 0.0 **** 0.06
21448 H 2.859913154518381 50.49456339902692 10.28959278561457 H 0.0 **** 0.06
21449 H 2.9953848361127484 51.1958026709341 11.920680686766062 H 0.0 **** 0.06
21450 H 1.5226359112086243 51.46125535314559 10.957285054343643 H 0.0 **** 0.06
21451 C 74.12197397498014 107.95905858286804 36.95016264459848 C 0.0 **** -0.24
21452 H 74.02747930236282 108.84759736968921 36.32662441690451 H 0.0 **** 0.06
21453 H 74.05622052075404 108.24393990035776 38.00078130744454 H 0.0 **** 0.06
21454 H 75.08532082769852 107.48538992182903 36.762500173558905 H 0.0 **** 0.06
21455 H 73.32043985450261 107.26064314730719 36.71162068103669 H 0.0 **** 0.06
21456 C 111.15178012527724 95.76570770141035 77.53055781807515 C 0.0 **** -0.24
21457 H 112.1957761022611 95.72207127335602 77.2211347712053 H 0.0 **** 0.06
21458 H 110.69484638512338 96.67454001250911 77.13865503511906 H 0.0 **** 0.06
21459 H 111.09681292350103 95.7703497337283 78.61933992203936 H 0.0 **** 0.06
21460 H 110.6224765776922 94.89589625998212 77.14420036483077 H 0.0 **** 0.06
21461 C 94.2251582778984 76.7988674851151 103.1864762137107 C 0.0 **** -0.24
21462 H 94.91870992235931 75.9584130644499 103.16793298492598 H 0.0 **** 0.06
21463 H 93.45676243473639 76.61919075016942 103.93873781568973 H 0.0 **** 0.06
21464 H 93.75713371478398 76.90611137545474 102.20761147265398 H 0.0 **** 0.06
21465 H 94.76802703971401 77.71175475038649 103.43162258157338 H 0.0 **** 0.06
21466 C 105.39194627303601 34.48494819185544 98.21659931751492 C 0.0 **** -0.24
21467 H 106.4808002656097 34.5273087624891 98.21958513893554 H 0.0 **** 0.06
21468 H 104.99625516174265 35.36044869772962 97.70040082901818 H 0.0 **** 0.06
21469 H 105.0271004619876 34.47303619337919 99.24446707288922 H 0.0 **** 0.06
21470 H 105.06363890516002 33.581228745710746 97.70395150548754 H 0.0 **** 0.06
21471 C 66.21790808178136 6.062460604352019 55.0129262619493 C 0.0 **** -0.24
21472 H 66.60401742850541 5.072119084989323 55.25325230997038 H 0.0 **** 0.06
21473 H 66.87651371580765 6.543346487160903 54.289425884042544 H 0.0 **** 0.06
21474 H 66.17256480218143 6.665089898893566 55.920326029332216 H 0.0 **** 0.06
21475 H 65.21773811869596 5.9692528941394425 54.58809943019463 H 0.0 **** 0.06
21476 C 51.88736060314341 83.5217376919496 59.26401821096724 C 0.0 **** -0.24
21477 H 52.82941109676972 83.27019193947541 58.77700385689403 H 0.0 **** 0.06
21478 H 51.49481989064799 84.4455984087337 58.839394207953035 H 0.0 **** 0.06
21479 H 52.05633877357201 83.65593844947614 60.33314636472289 H 0.0 **** 0.06
21480 H 51.170408373014425 82.71516845120291 59.10815290776867 H 0.0 **** 0.06
21481 C 29.480474477655633 74.85235645241082 4.311285309984655 C 0.0 **** -0.24
21482 H 28.459716569174134 74.67712475471706 3.970156908616147 H 0.0 **** 0.06
21483 H 29.535089280954026 74.69551907966525 5.3882048093048525 H 0.0 **** 0.06
21484 H 29.770869752881623 75.87618295501133 4.076629735456947 H 0.0 **** 0.06
21485 H 30.154778152159224 74.15868665326045 3.8080863344142557 H 0.0 **** 0.06
21486 C 12.125309611178864 76.95753860933752 25.699639051316666 C 0.0 **** -0.24
21487 H 12.777856269520228 77.71725054784176 25.268903584777235 H 0.0 **** 0.06
21488 H 11.111429867653968 77.09445445645616 25.325275277789274 H 0.0 **** 0.06
21489 H 12.127269571833878 77.05163776615177 26.786739341624013 H 0.0 **** 0.06
21490 H 12.486396441750728 75.96792614890327 25.420771997820594 H 0.0 **** 0.06
21491 C 67.97509731906229 30.467648815422365 72.98241908917504 C 0.0 **** -0.24
21492 H 67.43516581292533 30.08477802406503 73.84881181327464 H 0.0 **** 0.06
21493 H 67.26493228227304 30.722333545412766 72.19478479486597 H 0.0 **** 0.06
21494 H 68.6635770265143 29.706474935900587 72.61782711723237 H 0.0 **** 0.06
21495 H 68.53566434025774 31.357947733817355 73.2683803993605 H 0.0 **** 0.06
21496 C 85.87148317969576 8.688892545704995 18.180391051155027 C 0.0 **** -0.24
21497 H 86.32786210821754 8.550702705553675 17.200020583332076 H 0.0 **** 0.06
21498 H 84.94375102296019 8.117304996545851 18.2318130192386 H 0.0 **** 0.06
21499 H 85.6560947645296 9.74632983764566 18.335086287896516 H 0.0 **** 0.06
21500 H 86.556942433729 8.339316313579598 18.952059001886695 H 0.0 **** 0.06
21501 C 75.80925815976218 55.033988399896145 6.030442459000199 C 0.0 **** -0.24
21502 H 75.77180887470863 55.941434558570506 6.63147764642234 H 0.0 **** 0.06
21503 H 76.20181203464492 55.26861002202642 5.041210677234076 H 0.0 **** 0.06
21504 H 74.80483727637571 54.62036782367181 5.933168764976216 H 0.0 **** 0.06
21505 H 76.45706286879633 54.3041040531962 6.515106510197128 H 0.0 **** 0.06
21506 C 71.55920446446885 33.35446829164718 17.87105262781931 C 0.0 **** -0.24
21507 H 71.6080788171902 32.33198670256688 17.49529320847995 H 0.0 **** 0.06
21508 H 72.47293966159853 33.584645838163645 18.417972745061405 H 0.0 **** 0.06
21509 H 70.70124344381026 33.455347379854196 18.536079477498674 H 0.0 **** 0.06
21510 H 71.45255165939543 34.044437976568666 17.03317227795165 H 0.0 **** 0.06
21511 C 86.14902637550821 48.93852437153123 100.0424970022579 C 0.0 **** -0.24
21512 H 87.18771048684576 48.89872132184274 99.71651487851676 H 0.0 **** 0.06
21513 H 85.68793281755211 49.85531356346655 99.67316953504209 H 0.0 **** 0.06
21514 H 86.1095052974224 48.92528386737678 101.13131292572817 H 0.0 **** 0.06
21515 H 85.61096179930789 48.07675571552636 99.64794577671444 H 0.0 **** 0.06
21516 C 24.900223793761096 93.39193992125479 61.76803109470049 C 0.0 **** -0.24
21517 H 24.339791256831738 94.29948327652181 61.540819981396936 H 0.0 **** 0.06
21518 H 25.306874009730596 93.46042518051769 62.77766807680359 H 0.0 **** 0.06
21519 H 25.715716441327658 93.28014934423283 61.05388057398039 H 0.0 **** 0.06
21520 H 24.23681962581815 92.52944414117843 61.700065231535774 H 0.0 **** 0.06
21521 C 35.23516020099669 1.516185524844218 109.89745695138944 C 0.0 **** -0.24
21522 H 35.72210970432738 1.9480635352813351 109.02262382198865 H 0.0 **** 0.06
21523 H 35.303174465369466 0.4291135472454357 109.85054223531216 H 0.0 **** 0.06
21524 H 34.186940832097804 1.8147032874097704 109.91325857019356 H 0.0 **** 0.06
21525 H 35.72865116548243 1.873038357367875 110.80118649353139 H 0.0 **** 0.06
21526 C 109.90442684687756 22.732440651985 101.45908095347096 C 0.0 **** -0.24
21527 H 109.89202124537005 23.037462202754966 102.50528424317287 H 0.0 **** 0.06
21528 H 110.28238979648961 21.7125497902895 101.38287025496905 H 0.0 **** 0.06
21529 H 110.55132013668458 23.40272596416594 100.89353428619083 H 0.0 **** 0.06
21530 H 108.89237286099096 22.776905557714315 101.05554527168869 H 0.0 **** 0.06
21531 C 28.895291358139275 9.562088776206963 68.0591905090003 C 0.0 **** -0.24
21532 H 28.269455852835335 10.293640239235685 68.57056393462915 H 0.0 **** 0.06
21533 H 28.953410024887432 8.652327165280724 68.6571482413159 H 0.0 **** 0.06
21534 H 29.895760720277735 9.973870857190661 67.9238649629965 H 0.0 **** 0.06
21535 H 28.46279080090278 9.332532876762514 67.08608431412188 H 0.0 **** 0.06
21536 C 97.45669038208476 70.78237964244317 37.359479970832695 C 0.0 **** -0.24
21537 H 98.07659747515589 69.92750225629243 37.62983204738538 H 0.0 **** 0.06
21538 H 98.02070185507296 71.70249461334913 37.51397241698197 H 0.0 **** 0.06
21539 H 96.56252950681724 70.79394074480831 37.98185927477664 H 0.0 **** 0.06
21540 H 97.16847400374965 70.70381243739922 36.31067590558098 H 0.0 **** 0.06
21541 C 110.92528584762943 64.11325060426663 69.33183739656207 C 0.0 **** -0.24
21542 H 110.70153239680701 63.50146305720233 68.4580532322567 H 0.0 **** 0.06
21543 H 110.91419201964544 63.48784731852032 70.2256607372021 H 0.0 **** 0.06
21544 H 110.17445147612648 64.89800056006499 69.42815295186927 H 0.0 **** 0.06
21545 H 111.91039447918962 64.56505113494131 69.21599419478679 H 0.0 **** 0.06
21546 C 95.25316477506158 56.246989401148824 63.44488338197442 C 0.0 **** -0.24
21547 H 95.36728745686986 55.428517002621504 62.73376358547563 H 0.0 **** 0.06
21548 H 94.3752745444049 56.83808133892052 63.180566227402494 H 0.0 **** 0.06
21549 H 96.13998705733624 56.880096771696 63.41470571386964 H 0.0 **** 0.06
21550 H 95.12959901549704 55.840961453343084 64.44921412348907 H 0.0 **** 0.06
21551 C 75.98424823642802 51.85964189722334 75.98580571598984 C 0.0 **** -0.24
21552 H 75.48077011474015 52.56671574628427 75.32631139592667 H 0.0 **** 0.06
21553 H 75.70469168709002 52.06533491499271 77.01956776108963 H 0.0 **** 0.06
21554 H 77.06335150834377 51.96352555537842 75.87369555571311 H 0.0 **** 0.06
21555 H 75.68748917018081 50.84369294888197 75.72466361233228 H 0.0 **** 0.06
21556 C 76.74039938846897 101.60355427340389 65.49932270297597 C 0.0 **** -0.24
21557 H 77.46128438184368 100.82840408618972 65.76119377890228 H 0.0 **** 0.06
21558 H 75.90018613958725 101.56713082813323 66.19426409570633 H 0.0 **** 0.06
21559 H 76.3804261483391 101.4368014457522 64.48481342935327 H 0.0 **** 0.06
21560 H 77.22050755081597 102.58058815681619 65.5597906271143 H 0.0 **** 0.06
21561 C 63.15914635082226 55.82405770710466 73.30439140612933 C 0.0 **** -0.24
21562 H 62.10630980743344 55.915826640412064 73.57266199377028 H 0.0 **** 0.06
21563 H 63.472732073030464 56.7116725285091 72.75535835908877 H 0.0 **** 0.06
21564 H 63.29800750451921 54.94202391588723 72.67951114530874 H 0.0 **** 0.06
21565 H 63.75662872340994 55.72622805889614 74.21059808510213 H 0.0 **** 0.06
21566 C 103.8117306805612 106.02286642124582 2.401947108955767 C 0.0 **** -0.24
21567 H 103.60306614341587 106.82888690258932 3.1049680525933496 H 0.0 **** 0.06
21568 H 102.99717617265227 105.94873849403379 1.6814372927667023 H 0.0 **** 0.06
21569 H 103.90356812682757 105.0824518044493 2.944956867009523 H 0.0 **** 0.06
21570 H 104.74431852237032 106.2306863941111 1.8766546115750202 H 0.0 **** 0.06
21571 C 21.47827896959485 50.97850489137051 70.29912255613823 C 0.0 **** -0.24
21572 H 20.919183559894904 51.19196634287325 71.21000120181367 H 0.0 **** 0.06
21573 H 20.78266306241627 50.78781045346832 69.48162481545069 H 0.0 **** 0.06
21574 H 22.104600288345992 50.099501190361664 70.45525569519833 H 0.0 **** 0.06
21575 H 22.10742991762982 51.83244351846314 70.04923406000216 H 0.0 **** 0.06
21576 C 21.12876178917128 34.91264190791628 78.75675942314388 C 0.0 **** -0.24
21577 H 22.07228768066517 34.43648706067066 79.02466963088543 H 0.0 **** 0.06
21578 H 21.058486729016863 35.88112799307535 79.25121717482477 H 0.0 **** 0.06
21579 H 20.300814423550435 34.27974905231608 79.07623740921358 H 0.0 **** 0.06
21580 H 21.085128490948875 35.050278140777294 77.67654242156868 H 0.0 **** 0.06
21581 C 1.6808738622940957 8.124281178934865 79.53042466788315 C 0.0 **** -0.24
21582 H 1.1942400370219612 9.085682346955139 79.69356167210134 H 0.0 **** 0.06
21583 H 0.9944778354633552 7.454023320974443 79.0107801556517 H 0.0 **** 0.06
21584 H 1.9565956224593872 7.689320990943514 80.49110387364428 H 0.0 **** 0.06
21585 H 2.5762208587368693 8.268064319566577 78.92586157117185 H 0.0 **** 0.06
21586 C 91.64970701876402 40.94166400352961 8.068670596069992 C 0.0 **** -0.24
21587 H 91.55662693001366 39.85583059435396 8.067543017344633 H 0.0 **** 0.06
21588 H 91.94861108958048 41.28079482298088 7.0761102128241475 H 0.0 **** 0.06
21589 H 92.40382364099304 41.24029543986964 8.796945807646239 H 0.0 **** 0.06
21590 H 90.69126911209256 41.38787540808221 8.333550829350628 H 0.0 **** 0.06
21591 C 73.75421803174086 83.06045512569102 89.17207184932408 C 0.0 **** -0.24
21592 H 72.99992421708237 83.63194956397416 89.71354426323904 H 0.0 **** 0.06
21593 H 73.26705119447172 82.28103679608478 88.58532148805728 H 0.0 **** 0.06
21594 H 74.44215101699564 82.60332239886037 89.88358733669668 H 0.0 **** 0.06
21595 H 74.30661444441992 83.7253257005716 88.507999024676 H 0.0 **** 0.06
21596 C 65.10387000449333 109.08020466406151 78.16602786293547 C 0.0 **** -0.24
21597 H 65.98031189882096 109.19633742881445 77.52881820185013 H 0.0 **** 0.06
21598 H 65.32869645650845 108.37758956517175 78.96925669216148 H 0.0 **** 0.06
21599 H 64.27190455834995 108.69983955242277 77.57349325733358 H 0.0 **** 0.06
21600 H 64.83370030492858 110.04665039387491 78.59224776720032 H 0.0 **** 0.06
21601 C 82.47571192919375 110.8958602567833 111.89714137356218 C 0.0 **** -0.24
21602 H 83.0730486784787 110.41284904612951 112.67058715764135 H 0.0 **** 0.06
21603 H 81.41724900385415 110.75018918811085 112.11217985449944 H 0.0 **** 0.06
21604 H 82.71414245071179 110.45831862741144 110.92819011311346 H 0.0 **** 0.06
21605 H 82.69956479604201 111.96264899411887 111.87913874645483 H 0.0 **** 0.06
21606 C 29.286647243520264 11.043459273532534 72.00945486549642 C 0.0 **** -0.24
21607 H 30.31859379191414 10.811679008337023 71.74365289639087 H 0.0 **** 0.06
21608 H 28.739592126169555 10.11767390312599 72.18310521954064 H 0.0 **** 0.06
21609 H 28.818656208125503 11.595508213121235 71.19378961281558 H 0.0 **** 0.06
21610 H 29.272381380416107 11.649975339985616 72.91426150711797 H 0.0 **** 0.06
21611 C 73.7440744796821 3.7848659903765736 72.07652267989488 C 0.0 **** -0.24
21612 H 73.5084979604245 3.7244453641950486 71.01347023292124 H 0.0 **** 0.06
21613 H 72.95394377995083 4.3292370312878745 72.59346564003249 H 0.0 **** 0.06
21614 H 74.69189686008562 4.306785159649877 72.20853219019398 H 0.0 **** 0.06
21615 H 73.82309969490777 2.7788182073628036 72.4887074358573 H 0.0 **** 0.06
21616 C 31.370535104987837 50.95140380830147 27.438366408639467 C 0.0 **** -0.24
21617 H 32.174369924752625 51.674525539522165 27.57132826959355 H 0.0 **** 0.06
21618 H 30.40826935379433 51.45120076741078 27.5564092114345 H 0.0 **** 0.06
21619 H 31.464695056817966 50.16273657479877 28.186339947021807 H 0.0 **** 0.06
21620 H 31.434261132195488 50.51567757698912 26.440978285351292 H 0.0 **** 0.06
21621 C 75.74668579314172 6.902526203424557 109.72082500891962 C 0.0 **** -0.24
21622 H 75.61698007604753 6.894332062991481 108.63955420307227 H 0.0 **** 0.06
21623 H 74.80450109677045 6.639421344476631 110.202057015886 H 0.0 **** 0.06
21624 H 76.05325113651656 7.898220851343751 110.04258003097236 H 0.0 **** 0.06
21625 H 76.51226763971982 6.1791346063082955 110.00007110587401 H 0.0 **** 0.06
21626 C 55.266281785090655 45.727626438467695 87.44694149144723 C 0.0 **** -0.24
21627 H 54.59841044713686 46.58385785783526 87.53946717368243 H 0.0 **** 0.06
21628 H 54.67770328828244 44.81280896825439 87.38117894301021 H 0.0 **** 0.06
21629 H 55.91668503696218 45.6798154239577 88.32083516774901 H 0.0 **** 0.06
21630 H 55.87332649031593 45.836138710179526 86.54863633562397 H 0.0 **** 0.06
21631 C 76.65356033048528 40.135008662193016 23.257665857161413 C 0.0 **** -0.24
21632 H 75.63174974752502 39.75867060488688 23.20822707902542 H 0.0 **** 0.06
21633 H 76.63754695590711 41.19542245935655 23.511899238385524 H 0.0 **** 0.06
21634 H 77.13698947665301 39.99967017286675 22.290619791888076 H 0.0 **** 0.06
21635 H 77.20559227998069 39.586851201877685 24.020202042730403 H 0.0 **** 0.06
21636 C 49.57623175506933 25.186755834672567 63.6859280347666 C 0.0 **** -0.24
21637 H 49.759695266106576 25.313386634053018 64.75287797219937 H 0.0 **** 0.06
21638 H 50.2120620284129 25.871507192036404 63.12433400229275 H 0.0 **** 0.06
21639 H 48.529193878843955 25.403419834711315 63.47005333795935 H 0.0 **** 0.06
21640 H 49.80193934083786 24.16082663016087 63.39761803254013 H 0.0 **** 0.06
21641 C 98.75101267949395 63.75462645321527 2.048486324064104 C 0.0 **** -0.24
21642 H 99.5813050774695 63.786003999439494 1.3425426941971939 H 0.0 **** 0.06
21643 H 98.81934090628516 64.60606064055895 2.726350266760024 H 0.0 **** 0.06
21644 H 98.79676407824167 62.82838669429298 2.621882476447068 H 0.0 **** 0.06
21645 H 97.80853650549449 63.79866563617845 1.5033500473318249 H 0.0 **** 0.06
21646 C 87.80349003663403 49.117045307468 46.81891493364606 C 0.0 **** -0.24
21647 H 87.45211886899804 48.9008499297197 47.82782585684409 H 0.0 **** 0.06
21648 H 87.00094623577715 48.93030862465062 46.106212906146965 H 0.0 **** 0.06
21649 H 88.65355361964413 48.474568455572495 46.58584867657146 H 0.0 **** 0.06
21650 H 88.10971537953614 50.16159917359189 46.75739517284961 H 0.0 **** 0.06
21651 C 52.39537688851891 97.10954750809464 48.48061693980986 C 0.0 **** -0.24
21652 H 51.381287044217686 97.50281632401885 48.404967397945995 H 0.0 **** 0.06
21653 H 52.7881196904375 97.30720699200037 49.4777714830259 H 0.0 **** 0.06
21654 H 53.02877604226467 97.59549603128215 47.738208724819 H 0.0 **** 0.06
21655 H 52.38328967102569 96.03522472504034 48.29994657220176 H 0.0 **** 0.06
21656 C 49.56874838192215 41.9896691336719 11.519024732634534 C 0.0 **** -0.24
21657 H 49.14647040671056 42.50061208755177 12.384446602303768 H 0.0 **** 0.06
21658 H 50.001574172768045 41.0395123863175 11.833655370256821 H 0.0 **** 0.06
21659 H 50.34336392688678 42.612685265395925 11.071728348437148 H 0.0 **** 0.06
21660 H 48.78227217882281 41.80638336790947 10.78617006573208 H 0.0 **** 0.06
21661 C 22.02467378202823 72.37731106958887 24.827123644535803 C 0.0 **** -0.24
21662 H 22.986677995865676 72.39750716093815 25.33933395953052 H 0.0 **** 0.06
21663 H 21.245363719170598 72.08235213974314 25.530842712902384 H 0.0 **** 0.06
21664 H 22.06512682726276 71.65967116221043 24.00726332438748 H 0.0 **** 0.06
21665 H 21.802169284748828 73.36784528425375 24.43250229315143 H 0.0 **** 0.06
21666 C 78.75170375801122 11.00899785709706 32.5141286177911 C 0.0 **** -0.24
21667 H 77.96492963830897 11.338405375724445 33.1915608774969 H 0.0 **** 0.06
21668 H 78.73497555906434 9.920945534445966 32.43981987975266 H 0.0 **** 0.06
21669 H 79.7196380443533 11.332998547550357 32.895900974615984 H 0.0 **** 0.06
21670 H 78.58672685216308 11.442034699906234 31.527776715011697 H 0.0 **** 0.06
21671 C 50.008863867616526 92.19963659791406 30.766263672189332 C 0.0 **** -0.24
21672 H 49.18796612444976 92.241142850442 30.051257068157454 H 0.0 **** 0.06
21673 H 49.68132828675621 92.61581589925302 31.719336945117156 H 0.0 **** 0.06
21674 H 50.85100005685496 92.77747873374534 30.3868543488595 H 0.0 **** 0.06
21675 H 50.31452996091548 91.1628704451403 30.907867304200032 H 0.0 **** 0.06
21676 C 14.482093673236605 55.43835261876802 50.9014601175931 C 0.0 **** -0.24
21677 H 14.36964207226271 56.10272049501745 50.04405273885112 H 0.0 **** 0.06
21678 H 14.079068693651983 55.92186230603457 51.79086530626245 H 0.0 **** 0.06
21679 H 15.53882306693935 55.21906320357476 51.05386918682069 H 0.0 **** 0.06
21680 H 13.942167235923673 54.51002468176921 50.71527186232976 H 0.0 **** 0.06
21681 C 9.714217073114156 94.56754943045047 71.44474515843629 C 0.0 **** -0.24
21682 H 9.742421574501833 94.72291604360225 70.36664309355277 H 0.0 **** 0.06
21683 H 8.681418162781199 94.61313721673818 71.79126585830025 H 0.0 **** 0.06
21684 H 10.299070755477516 95.34265618966677 71.93923886932069 H 0.0 **** 0.06
21685 H 10.133898817890014 93.58930648303931 71.68231923069573 H 0.0 **** 0.06
21686 C 64.97578832764731 36.57889358597021 100.38155879169031 C 0.0 **** -0.24
21687 H 64.72378058915388 36.466386295702705 99.32674096902815 H 0.0 **** 0.06
21688 H 64.09736991516382 36.919400357812606 100.93000626880797 H 0.0 **** 0.06
21689 H 65.77612891159828 37.311716605263484 100.48648633388905 H 0.0 **** 0.06
21690 H 65.30548080941338 35.620404278573886 100.7801028907854 H 0.0 **** 0.06
21691 C 14.83626015073871 55.11394429807805 92.72979600593257 C 0.0 **** -0.24
21692 H 15.126212746137298 54.527242996426025 91.85801422380473 H 0.0 **** 0.06
21693 H 15.543606564689313 55.93130282412474 92.86882283732595 H 0.0 **** 0.06
21694 H 14.837650277871447 54.47675076700841 93.61381061384523 H 0.0 **** 0.06
21695 H 13.835823797815067 55.519728546649375 92.57621640180986 H 0.0 **** 0.06
21696 C 18.036329455515244 99.52615998023063 41.75492327802124 C 0.0 **** -0.24
21697 H 18.788170148630087 98.82403259275006 42.11338389848257 H 0.0 **** 0.06
21698 H 18.29873017102267 99.85792971139176 40.750273534154786 H 0.0 **** 0.06
21699 H 17.994719684820296 100.38645506603001 42.42341293157874 H 0.0 **** 0.06
21700 H 17.063162157893288 99.03540635568405 41.7328394297279 H 0.0 **** 0.06
21701 C 111.30214644552214 20.29554666308811 83.21426120844114 C 0.0 **** -0.24
21702 H 110.28508148214203 19.931572848514367 83.35536485426695 H 0.0 **** 0.06
21703 H 111.35468240365009 20.877703234968376 82.29403563277248 H 0.0 **** 0.06
21704 H 111.98549105755433 19.449746428544202 83.14820506051603 H 0.0 **** 0.06
21705 H 111.58303994698815 20.924837862219963 84.05910134068375 H 0.0 **** 0.06
21706 C 85.96849502621953 109.85802983401896 86.81524055672321 C 0.0 **** -0.24
21707 H 85.85375614119721 110.30115389316386 87.80474168176474 H 0.0 **** 0.06
21708 H 84.98469419464672 109.63117254972586 86.40251767767955 H 0.0 **** 0.06
21709 H 86.55073536839447 108.93944062251593 86.89300608235939 H 0.0 **** 0.06
21710 H 86.48390746208102 110.56079009983702 86.16054946795481 H 0.0 **** 0.06
21711 C 25.09216533162467 23.748796868409382 23.46752366099565 C 0.0 **** -0.24
21712 H 25.60864043269376 22.789640668642967 23.43891924651671 H 0.0 **** 0.06
21713 H 24.440704599425743 23.78474118320712 24.34126983029327 H 0.0 **** 0.06
21714 H 24.49498333292837 23.865943958233157 22.56369150742492 H 0.0 **** 0.06
21715 H 25.824159571571954 24.55387711634448 23.526239739802744 H 0.0 **** 0.06
21716 C 38.826309219831955 35.879628231414245 24.597538027586467 C 0.0 **** -0.24
21717 H 38.881299858657684 35.57892301267019 25.644486389627502 H 0.0 **** 0.06
21718 H 37.81018898424438 35.730251590809274 24.23018020461413 H 0.0 **** 0.06
21719 H 39.51878731687893 35.276057584099775 24.01041540570506 H 0.0 **** 0.06
21720 H 39.094883429308 36.93240758684931 24.507939281649584 H 0.0 **** 0.06
21721 C 58.64391003020708 93.01966823434952 37.952190753996035 C 0.0 **** -0.24
21722 H 58.82526816506714 92.87814366192802 39.0181604885218 H 0.0 **** 0.06
21723 H 57.58184145287197 93.20112084444244 37.785212562629965 H 0.0 **** 0.06
21724 H 58.95036976728119 92.12509001361016 37.4101901841438 H 0.0 **** 0.06
21725 H 59.21990136037158 93.8747298303962 37.59654188664939 H 0.0 **** 0.06
21726 C 97.52862532158346 48.630512970327544 17.296538926193136 C 0.0 **** -0.24
21727 H 96.76469352766955 48.66199432446183 18.073745821689272 H 0.0 **** 0.06
21728 H 98.43253610877983 49.123321257660194 17.65554687885316 H 0.0 **** 0.06
21729 H 97.1629264686944 49.14388884833431 16.407828124207327 H 0.0 **** 0.06
21730 H 97.75253966107292 47.59275723236064 17.05068784646909 H 0.0 **** 0.06
21731 C 95.59329019675812 31.68143193169874 34.318255877191405 C 0.0 **** -0.24
21732 H 95.37768714598914 32.31822861460148 33.46079179637633 H 0.0 **** 0.06
21733 H 94.80415382666837 31.792818336831488 35.0613367631243 H 0.0 **** 0.06
21734 H 96.54893427260782 31.972686244505212 34.75538489203268 H 0.0 **** 0.06
21735 H 95.64448447065857 30.641686924954115 33.99480283751052 H 0.0 **** 0.06
21736 C 43.43504475428608 1.1496429194562525 27.858250866876574 C 0.0 **** -0.24
21737 H 42.82194937586094 1.0164738618771603 26.9666172657237 H 0.0 **** 0.06
21738 H 44.167995499125624 0.3445905455834417 27.918544476686122 H 0.0 **** 0.06
21739 H 42.79805269776111 1.1289798085468483 28.74239764997725 H 0.0 **** 0.06
21740 H 43.950666963093056 2.108157739984632 27.803840973198987 H 0.0 **** 0.06
21741 C 24.326588085508575 92.91734700778935 10.858924457375128 C 0.0 **** -0.24
21742 H 24.446416919682065 91.85026951500708 11.042554484713879 H 0.0 **** 0.06
21743 H 23.771277768221836 93.0657778997122 9.932572938944457 H 0.0 **** 0.06
21744 H 25.307893450737225 93.38375415422271 10.773270920899446 H 0.0 **** 0.06
21745 H 23.77985846287018 93.3698140137891 11.68694183831607 H 0.0 **** 0.06
21746 C 111.8295520105124 93.64674287879049 107.67086265804417 C 0.0 **** -0.24
21747 H 110.85703399442775 93.57328338150145 107.18434257802497 H 0.0 **** 0.06
21748 H 112.39324345726257 92.7295517421203 107.49739561007254 H 0.0 **** 0.06
21749 H 111.69128556081944 93.79144324920063 108.742328280887 H 0.0 **** 0.06
21750 H 112.37829943942208 94.49359428865151 107.25817952761085 H 0.0 **** 0.06
21751 C 91.25045433587849 111.17234398411532 33.06766661898678 C 0.0 **** -0.24
21752 H 91.10160675041664 110.47536310244409 33.8928493137924 H 0.0 **** 0.06
21753 H 90.72913527441096 112.10542600827577 33.280874848298026 H 0.0 **** 0.06
21754 H 90.85549586503578 110.73589296466035 32.150271010057736 H 0.0 **** 0.06
21755 H 92.31541027780236 111.36938708267868 32.94686422888452 H 0.0 **** 0.06
21756 C 60.209515494961295 37.425612970913335 98.19348435655627 C 0.0 **** -0.24
21757 H 59.489137147129156 37.425505771951656 99.01294121789405 H 0.0 **** 0.06
21758 H 61.21848706891177 37.508274997243554 98.59787990364967 H 0.0 **** 0.06
21759 H 60.01057350701126 38.271849897129776 97.53647332344318 H 0.0 **** 0.06
21760 H 60.11841527981767 36.49729266319634 97.63006043623415 H 0.0 **** 0.06
21761 C 22.180610025525027 39.39596208371745 45.863205268714054 C 0.0 **** -0.24
21762 H 22.805740194275984 38.53090507993823 45.64329163487599 H 0.0 **** 0.06
21763 H 22.565717030530948 39.90709859661576 46.7452706979744 H 0.0 **** 0.06
21764 H 21.158610990403417 39.06651804385038 46.05066456980922 H 0.0 **** 0.06
21765 H 22.19238498219397 40.07765234848251 45.01315051455464 H 0.0 **** 0.06
21766 C 25.753133578079087 43.580801475304554 67.9997051801034 C 0.0 **** -0.24
21767 H 26.639087909511034 43.72375621086006 67.38109928660492 H 0.0 **** 0.06
21768 H 25.82802380556518 44.20402586357241 68.89088429336547 H 0.0 **** 0.06
21769 H 25.682349013450562 42.53307518512105 68.29371473305412 H 0.0 **** 0.06
21770 H 24.865823738278323 43.86123980483407 67.43357808456224 H 0.0 **** 0.06
21771 C 27.49273474227121 92.43262813892926 24.687284488480742 C 0.0 **** -0.24
21772 H 26.644382037080668 91.76516153506017 24.837202421313435 H 0.0 **** 0.06
21773 H 27.577711994936422 93.108497903652 25.537941464611492 H 0.0 **** 0.06
21774 H 27.341277569031142 93.01156814263675 23.77577001483965 H 0.0 **** 0.06
21775 H 28.406358106641903 91.84496750775156 24.597025273780275 H 0.0 **** 0.06
21776 C 31.70808179547695 52.461505999030635 51.45820812351127 C 0.0 **** -0.24
21777 H 30.977688934757957 52.39763235562879 52.26485849641196 H 0.0 **** 0.06
21778 H 32.68616706441991 52.154437047320584 51.82984680481417 H 0.0 **** 0.06
21779 H 31.76045323795892 53.48819638555676 51.09669679692337 H 0.0 **** 0.06
21780 H 31.406055968740432 51.80354406016522 50.64349169124756 H 0.0 **** 0.06
21781 C 30.62730453377094 46.807266950263 57.17139395249069 C 0.0 **** -0.24
21782 H 30.68260934083486 47.890612016720866 57.28544361601908 H 0.0 **** 0.06
21783 H 31.061092467680027 46.327459350304935 58.048750258289886 H 0.0 **** 0.06
21784 H 31.181469126032027 46.50789225073109 56.28184924950392 H 0.0 **** 0.06
21785 H 29.585505842090356 46.50602070016279 57.06892694846809 H 0.0 **** 0.06
21786 C 75.9466541493388 89.44298730611374 86.21343653895275 C 0.0 **** -0.24
21787 H 75.83664385402534 90.36309999653065 85.6397364894921 H 0.0 **** 0.06
21788 H 76.35961154360109 89.67510945939793 87.19597507879013 H 0.0 **** 0.06
21789 H 76.61891635148328 88.76600593155689 85.68728439216486 H 0.0 **** 0.06
21790 H 74.97173167018462 88.97010525329492 86.33129283532733 H 0.0 **** 0.06
21791 C 40.171483842230074 58.764320544194256 101.98057135868095 C 0.0 **** -0.24
21792 H 39.475248758950414 58.78691478382813 101.14272438577711 H 0.0 **** 0.06
21793 H 41.07191884743713 58.223171406425756 101.68854079957842 H 0.0 **** 0.06
21794 H 39.70363292861927 58.261707071322896 102.82786627993545 H 0.0 **** 0.06
21795 H 40.43450594038487 59.783121676001535 102.26312215987105 H 0.0 **** 0.06
21796 C 93.7986453607042 84.80827534537372 72.21185204985065 C 0.0 **** -0.24
21797 H 94.02691900064838 84.26832522903959 71.29253412526359 H 0.0 **** 0.06
21798 H 92.71922578019473 84.91757251216191 72.31044624402378 H 0.0 **** 0.06
21799 H 94.26338978044151 85.7939091131856 72.17768891759349 H 0.0 **** 0.06
21800 H 94.1883375388353 84.252890211535 73.0650042951107 H 0.0 **** 0.06
21801 C 80.54881777453915 1.4657205860055598 102.0683757040826 C 0.0 **** -0.24
21802 H 79.7548071631567 1.8013651572515812 102.73560225615398 H 0.0 **** 0.06
21803 H 80.13743832598206 1.2894031487668087 101.07413602382871 H 0.0 **** 0.06
21804 H 80.98023160166193 0.541751917658317 102.45217297424063 H 0.0 **** 0.06
21805 H 81.32216786871587 2.2316293388671085 102.01154443388504 H 0.0 **** 0.06
21806 C 55.48788775179123 32.823180053261424 13.16427574717818 C 0.0 **** -0.24
21807 H 56.41567682521979 33.3454870884361 12.93261189921543 H 0.0 **** 0.06
21808 H 55.07619468446911 33.21017004194374 14.095977905796644 H 0.0 **** 0.06
21809 H 55.68812695895808 31.756815575943307 13.27105346524013 H 0.0 **** 0.06
21810 H 54.771686664772844 32.97927720751363 12.357661178920353 H 0.0 **** 0.06
21811 C 107.44589982810967 108.34972825271863 9.169290973893073 C 0.0 **** -0.24
21812 H 107.21076568768419 107.40307958454399 8.680781264114204 H 0.0 **** 0.06
21813 H 107.29556251939368 108.25108701487079 10.24473229495592 H 0.0 **** 0.06
21814 H 106.79216516363041 109.13017003092213 8.780163750117602 H 0.0 **** 0.06
21815 H 108.48507085012821 108.61213205963536 8.969480438049564 H 0.0 **** 0.06
21816 C 0.13674881939887484 55.22633877309964 93.17952620154446 C 0.0 **** -0.24
21817 H -0.27121968690562426 56.22497502610231 93.0207818545733 H 0.0 **** 0.06
21818 H 0.9370199299191313 55.04286920726261 92.46295699527695 H 0.0 **** 0.06
21819 H -0.651876326932836 54.48622816868039 93.04308913480327 H 0.0 **** 0.06
21820 H 0.5324070994221017 55.15376021824328 94.19283281700643 H 0.0 **** 0.06
21821 C 1.363298179352471 17.866591568623893 53.06470063683423 C 0.0 **** -0.24
21822 H 1.288817204443533 18.905003788957007 53.38575665673653 H 0.0 **** 0.06
21823 H 1.135780471863618 17.79866484498274 52.0001941197379 H 0.0 **** 0.06
21824 H 0.6539539731779671 17.25960723705066 53.62694452186025 H 0.0 **** 0.06
21825 H 2.3753684184103587 17.502677178865433 53.24383348665134 H 0.0 **** 0.06
21826 C 19.60956663772771 36.15538310498545 10.466338941641084 C 0.0 **** -0.24
21827 H 19.996914514743423 36.45089463737963 11.44179318966826 H 0.0 **** 0.06
21828 H 18.87137635953178 36.88431708394114 10.132212099997787 H 0.0 **** 0.06
21829 H 19.143202571129166 35.1735648249624 10.544196371014436 H 0.0 **** 0.06
21830 H 20.42897749441363 36.11244372237917 9.748175659341484 H 0.0 **** 0.06
21831 C 25.743280667626294 66.2312884176032 29.161285722867802 C 0.0 **** -0.24
21832 H 26.377170519129805 67.0146831126558 28.74654512279872 H 0.0 **** 0.06
21833 H 25.577116111430726 65.46064520854515 28.407676507485064 H 0.0 **** 0.06
21834 H 24.78624842748198 66.65819408950154 29.46192213653744 H 0.0 **** 0.06
21835 H 26.233171414801376 65.78973922133667 30.030038186361338 H 0.0 **** 0.06
21836 C 47.93313193066765 11.972621023202038 101.20283943884411 C 0.0 **** -0.24
21837 H 47.10247191952938 12.674489732988391 101.28774967115092 H 0.0 **** 0.06
21838 H 47.931220338781294 11.302124251383063 102.06196270679521 H 0.0 **** 0.06
21839 H 48.871910800723406 12.524347749554948 101.17317200919544 H 0.0 **** 0.06
21840 H 47.82340345671934 11.391413286756418 100.28704981119418 H 0.0 **** 0.06
21841 C 23.90451252131453 61.001302146041866 18.333589024006404 C 0.0 **** -0.24
21842 H 24.510932867826256 61.22250889590154 17.454949530289213 H 0.0 **** 0.06
21843 H 24.155516339450543 60.007567916006735 18.707158113099855 H 0.0 **** 0.06
21844 H 22.84935700987259 61.032336397045015 18.062959977775193 H 0.0 **** 0.06
21845 H 24.10388209753725 61.74210984515773 19.107086951145885 H 0.0 **** 0.06
21846 C 40.30409494916904 47.359956132154366 96.76801251556091 C 0.0 **** -0.24
21847 H 39.668155182769226 47.101469073624514 95.92215592918956 H 0.0 **** 0.06
21848 H 41.34456268938743 47.145537472056816 96.52029692849274 H 0.0 **** 0.06
21849 H 40.00955603516752 46.771633508639326 97.63741906310503 H 0.0 **** 0.06
21850 H 40.19505400022791 48.420777787623365 96.99314551168726 H 0.0 **** 0.06
21851 C 89.73655079545387 55.6406310162665 37.91801617329202 C 0.0 **** -0.24
21852 H 88.85584727686108 56.01055811698134 37.39301746612023 H 0.0 **** 0.06
21853 H 89.60389329410489 54.583683049248464 38.150806677614355 H 0.0 **** 0.06
21854 H 89.8711924812811 56.20188264314791 38.84196938898765 H 0.0 **** 0.06
21855 H 90.61585351025528 55.76530728211074 37.285589112661455 H 0.0 **** 0.06
21856 C 5.705387661533166 62.79314145152043 11.75414379005376 C 0.0 **** -0.24
21857 H 6.462766284964772 63.24823871886571 12.392589168825253 H 0.0 **** 0.06
21858 H 4.851801350419436 63.466684369792944 11.667571099811482 H 0.0 **** 0.06
21859 H 5.380221551668143 61.84873123397671 12.191637544437555 H 0.0 **** 0.06
21860 H 6.125954988920796 62.60945426817446 10.765804529728399 H 0.0 **** 0.06
21861 C 69.82841121284022 42.76616556157245 28.63952395317665 C 0.0 **** -0.24
21862 H 70.21212093199819 43.64205730460219 28.117805819578905 H 0.0 **** 0.06
21863 H 68.95892670894608 43.05001108734314 29.23327883711707 H 0.0 **** 0.06
21864 H 70.60213106063264 42.36740661349984 29.295915841300143 H 0.0 **** 0.06
21865 H 69.54103618698747 42.00642751586213 27.91286648920365 H 0.0 **** 0.06
21866 C 11.6179482677761 58.314784460561185 109.59109170460223 C 0.0 **** -0.24
21867 H 10.548203085304095 58.17509773891726 109.43350589308442 H 0.0 **** 0.06
21868 H 11.968206984462853 59.14948527670336 108.9847760215445 H 0.0 **** 0.06
21869 H 12.14861966386971 57.40766223328714 109.30161884961043 H 0.0 **** 0.06
21870 H 11.806266857092169 58.52518610893503 110.64354864198387 H 0.0 **** 0.06
21871 C 92.06518045986849 69.91596759749356 105.31523586554903 C 0.0 **** -0.24
21872 H 91.02528331726458 70.01162941516768 105.00474098080039 H 0.0 **** 0.06
21873 H 92.15241688421477 69.11459217927532 106.04965856175275 H 0.0 **** 0.06
21874 H 92.39875951955193 70.85362898756244 105.75960677991424 H 0.0 **** 0.06
21875 H 92.683921922819 69.6837484247763 104.44828277398364 H 0.0 **** 0.06
21876 C 37.21900192621075 27.590378175173555 48.85363003534113 C 0.0 **** -0.24
21877 H 36.31366360095695 28.19771885096756 48.827376050716026 H 0.0 **** 0.06
21878 H 38.09299976011176 28.242838831769546 48.87376394376804 H 0.0 **** 0.06
21879 H 37.25784637331505 26.95804908250247 47.96614230744743 H 0.0 **** 0.06
21880 H 37.21150111845647 26.964800652006232 49.746050269268096 H 0.0 **** 0.06
21881 C 63.23407608493278 52.13276332262643 15.36503545655708 C 0.0 **** -0.24
21882 H 64.26697560905569 52.47995557392284 15.348198562637862 H 0.0 **** 0.06
21883 H 63.14506297926425 51.290602704923515 16.052170537412024 H 0.0 **** 0.06
21884 H 62.940731243534685 51.81641219438194 14.363191030067583 H 0.0 **** 0.06
21885 H 62.58415226552398 52.94237201431537 15.695280999247046 H 0.0 **** 0.06
21886 C 93.84223926921956 67.36200439260989 35.24021098485554 C 0.0 **** -0.24
21887 H 93.04713502214668 68.10012040059382 35.14264923400117 H 0.0 **** 0.06
21888 H 94.50539919068478 67.64824359504547 36.056923579982765 H 0.0 **** 0.06
21889 H 94.40998444267095 67.31379062273183 34.311051023301104 H 0.0 **** 0.06
21890 H 93.40687053885597 66.38496244756766 35.4502693246057 H 0.0 **** 0.06
21891 C 79.80415911081391 38.132546498732 94.7811943962198 C 0.0 **** -0.24
21892 H 78.91140656113845 37.59727809498793 94.46094934040116 H 0.0 **** 0.06
21893 H 79.5804366621038 38.70745277837733 95.6802686260254 H 0.0 **** 0.06
21894 H 80.12762450883238 38.808402544093084 93.98898408113763 H 0.0 **** 0.06
21895 H 80.59871085872294 37.4176068658035 94.99513653247843 H 0.0 **** 0.06
21896 C 110.24920709713649 68.91484301122617 24.249575123246842 C 0.0 **** -0.24
21897 H 109.5203442791958 69.72509471367974 24.21652057875636 H 0.0 **** 0.06
21898 H 110.84753908304054 68.92822926826918 23.338526805428728 H 0.0 **** 0.06
21899 H 109.7276171977698 67.96119051003251 24.32869689429907 H 0.0 **** 0.06
21900 H 110.8986109820479 69.04643375053763 25.11492352017754 H 0.0 **** 0.06
21901 C 9.709643303310429 17.2640138841237 43.69809188550013 C 0.0 **** -0.24
21902 H 9.47858127930266 16.23891900836884 43.98989369777621 H 0.0 **** 0.06
21903 H 8.945929870145221 17.933362921461764 44.0932564213835 H 0.0 **** 0.06
21904 H 9.72908134004416 17.335228570868253 42.61083617000975 H 0.0 **** 0.06
21905 H 10.683344233062485 17.544505188160315 44.0984323122284 H 0.0 **** 0.06
21906 C 51.431344684478745 102.40941052018249 3.2627325077652927 C 0.0 **** -0.24
21907 H 51.08292036401713 101.37771794378077 3.2141597477510686 H 0.0 **** 0.06
21908 H 51.352898120931286 102.86561472273667 2.275669552109889 H 0.0 **** 0.06
21909 H 52.47138228731404 102.42669812963248 3.5894500433491316 H 0.0 **** 0.06
21910 H 50.819162453050666 102.96666289610738 3.9712881174233416 H 0.0 **** 0.06
21911 C 93.67488603001851 65.92882144815277 59.42091557516045 C 0.0 **** -0.24
21912 H 94.57341993560848 65.52547952187408 59.88715742498988 H 0.0 **** 0.06
21913 H 93.52013875154196 66.95428287654889 59.75819082586662 H 0.0 **** 0.06
21914 H 92.8153676894064 65.31975291658313 59.70082830236038 H 0.0 **** 0.06
21915 H 93.79200536428925 65.91580939590716 58.33721536361196 H 0.0 **** 0.06
21916 C 7.3036865925772645 94.2979321308666 10.928070085804535 C 0.0 **** -0.24
21917 H 8.29073375022827 94.49695866646493 11.345100922298258 H 0.0 **** 0.06
21918 H 6.926733204552875 95.19846538889766 10.44259359782572 H 0.0 **** 0.06
21919 H 6.624565660027969 94.00484468019567 11.728709140812455 H 0.0 **** 0.06
21920 H 7.372635881331178 93.49278916145786 10.197368971956394 H 0.0 **** 0.06
21921 C 85.94513032969184 9.750429596977138 82.16064194354092 C 0.0 **** -0.24
21922 H 85.03710789386002 9.357782948079103 81.70325016135635 H 0.0 **** 0.06
21923 H 85.72448473299627 10.08536763217868 83.17426585516668 H 0.0 **** 0.06
21924 H 86.31492774240368 10.589965463153135 81.57231739907314 H 0.0 **** 0.06
21925 H 86.702948553975 8.967329859749407 82.19325725088925 H 0.0 **** 0.06
21926 C 10.104057894333792 83.51128482534006 88.05177514178666 C 0.0 **** -0.24
21927 H 9.734297702577166 83.74199727424428 89.05138037200544 H 0.0 **** 0.06
21928 H 10.054478573661484 84.40571063154113 87.43063283316448 H 0.0 **** 0.06
21929 H 9.48953683178867 82.7268059667785 87.6106072038483 H 0.0 **** 0.06
21930 H 11.137602456022307 83.17007090927603 88.11741156635978 H 0.0 **** 0.06
21931 C 71.85716393742243 33.64421348547185 103.27105914333589 C 0.0 **** -0.24
21932 H 72.15016657893736 32.638817299390865 102.96625849646964 H 0.0 **** 0.06
21933 H 71.521769022336 34.20444433709568 102.3978420590496 H 0.0 **** 0.06
21934 H 72.71113927117904 34.14997388507115 103.72201585498104 H 0.0 **** 0.06
21935 H 71.04682327858654 33.58216590349468 103.99695959515901 H 0.0 **** 0.06
21936 C 14.143236915203246 40.40911035323407 13.928137902250313 C 0.0 **** -0.24
21937 H 13.20053895502025 40.34303709844633 14.471273490390871 H 0.0 **** 0.06
21938 H 14.096222414341483 39.77561805967156 13.04172794899091 H 0.0 **** 0.06
21939 H 14.957265935097425 40.07496291138983 14.570420985586097 H 0.0 **** 0.06
21940 H 14.31744592419669 41.44220738851257 13.627564916481461 H 0.0 **** 0.06
21941 C 69.90591801780715 13.954613655692043 88.18231650346272 C 0.0 **** -0.24
21942 H 69.02794883870081 13.60458592852244 88.72571702846068 H 0.0 **** 0.06
21943 H 69.59247324153057 14.426551940261728 87.25047741581787 H 0.0 **** 0.06
21944 H 70.55609142676565 13.108225208044459 87.96072559822616 H 0.0 **** 0.06
21945 H 70.44718233943036 14.678106525357386 88.79217501545591 H 0.0 **** 0.06
21946 C 72.85783791753215 100.52640676640306 83.46261279542935 C 0.0 **** -0.24
21947 H 73.02125111635715 100.37643649198324 84.52919301201047 H 0.0 **** 0.06
21948 H 71.79433584778812 100.43218647730353 83.24024745229391 H 0.0 **** 0.06
21949 H 73.4142157860716 99.77663650583142 82.90058736533209 H 0.0 **** 0.06
21950 H 73.20076624524242 101.52187410335554 83.17896797481748 H 0.0 **** 0.06
21951 C 103.30286327537291 51.31998030012829 52.241296685186434 C 0.0 **** -0.24
21952 H 104.06226937586214 51.653871226681304 52.94857996083182 H 0.0 **** 0.06
21953 H 102.49138781905862 52.046104781483876 52.21006956704318 H 0.0 **** 0.06
21954 H 102.9141751869162 50.35159703023649 52.55642650758054 H 0.0 **** 0.06
21955 H 103.7462398583929 51.22666871163196 51.24954490886734 H 0.0 **** 0.06
21956 C 18.841483093880157 41.33892670490934 0.8607510273763381 C 0.0 **** -0.24
21957 H 18.152684459216943 40.55057776345815 1.1662896412066601 H 0.0 **** 0.06
21958 H 19.343524012268688 41.74247352930021 1.7405494781706068 H 0.0 **** 0.06
21959 H 18.28568439927571 42.133609115814465 0.3626706221646714 H 0.0 **** 0.06
21960 H 19.581967614583164 40.927826248580345 0.17498397475743843 H 0.0 **** 0.06
21961 C 97.49953925451359 5.896186051550899 105.1004352070637 C 0.0 **** -0.24
21962 H 97.4192506166462 6.7083667318412665 105.82357331179057 H 0.0 **** 0.06
21963 H 97.25011362107216 4.952744482461185 105.58607627931946 H 0.0 **** 0.06
21964 H 98.51874107563259 5.8510018957206285 104.71718280125691 H 0.0 **** 0.06
21965 H 96.80851311200803 6.073822721850064 104.27639608541787 H 0.0 **** 0.06
21966 C 80.56708104672236 54.2834759578946 74.77622412446235 C 0.0 **** -0.24
21967 H 80.78606526841054 53.436029714170836 74.12672419620893 H 0.0 **** 0.06
21968 H 80.84143592109086 54.03385198640221 75.80164634020593 H 0.0 **** 0.06
21969 H 79.50179289568237 54.5114959307363 74.7298507824294 H 0.0 **** 0.06
21970 H 81.13934361278407 55.15036626954873 74.4471616907781 H 0.0 **** 0.06
21971 C 48.25838787150125 65.51933950924973 104.09782086035887 C 0.0 **** -0.24
21972 H 48.16520180453796 65.22291588980426 105.14240774632532 H 0.0 **** 0.06
21973 H 49.30583911253818 65.71731531836502 103.86819524854502 H 0.0 **** 0.06
21974 H 47.67072379200324 66.42078301105337 103.92325869230581 H 0.0 **** 0.06
21975 H 47.8902998562601 64.71696005912486 103.45860899493823 H 0.0 **** 0.06
21976 C 56.1652385862919 96.75314705646156 42.16927575826796 C 0.0 **** -0.24
21977 H 57.079930482516986 97.125893491326 42.62906392449605 H 0.0 **** 0.06
21978 H 56.02827108008722 95.70419349982024 42.43338514565784 H 0.0 **** 0.06
21979 H 56.23749016784316 96.84993110194671 41.08657872101347 H 0.0 **** 0.06
21980 H 55.31551142020663 97.33281866934234 42.52944507358788 H 0.0 **** 0.06
21981 C 71.15748951581858 100.37483786881134 12.317310461824889 C 0.0 **** -0.24
21982 H 72.18783732263833 100.0222607461387 12.262856774540154 H 0.0 **** 0.06
21983 H 70.97381354944491 100.80951809884306 13.299870702743618 H 0.0 **** 0.06
21984 H 70.47901416207011 99.53620915772163 12.157543354605792 H 0.0 **** 0.06
21985 H 70.99003468456928 101.12814361942455 11.548682715117167 H 0.0 **** 0.06
21986 C 56.04204959848927 18.890165422955363 16.858486270277837 C 0.0 **** -0.24
21987 H 56.236113737820816 18.76710991213099 15.793040901576376 H 0.0 **** 0.06
21988 H 56.34696801608783 17.988633894727116 17.389507955460545 H 0.0 **** 0.06
21989 H 54.97731639916855 19.062533842092677 17.01496539962315 H 0.0 **** 0.06
21990 H 56.60740735587928 19.742916335481254 17.234072298153876 H 0.0 **** 0.06
21991 C 27.868086049158087 108.93023457975684 28.305921137097812 C 0.0 **** -0.24
21992 H 28.735681768220118 108.77926732833335 28.947156559703842 H 0.0 **** 0.06
21993 H 27.698465740690203 108.03346627871399 27.708589529484726 H 0.0 **** 0.06
21994 H 28.047874556971685 109.77816396594616 27.645247071505423 H 0.0 **** 0.06
21995 H 26.991073595653376 109.12860609675693 28.921517799675144 H 0.0 **** 0.06
21996 C 101.85799862503453 31.092036519175224 8.037949751601104 C 0.0 **** -0.24
21997 H 101.4777880902353 30.304941566980517 7.385227766488384 H 0.0 **** 0.06
21998 H 102.42248192791908 31.812547457922392 7.445987773988492 H 0.0 **** 0.06
21999 H 102.50760765159083 30.653486736630043 8.794755229988596 H 0.0 **** 0.06
22000 H 101.02214481841477 31.595690875782566 8.524118575628336 H 0.0 **** 0.06
22001 C 21.26167163001523 95.93399682523386 62.191613438175665 C 0.0 **** -0.24
22002 H 22.18864029356115 96.17567906226071 62.712442806172476 H 0.0 **** 0.06
22003 H 20.688283533005375 96.84591854581646 62.029239862196164 H 0.0 **** 0.06
22004 H 20.67717808531711 95.2394503629738 62.795998221301716 H 0.0 **** 0.06
22005 H 21.494281464026244 95.47347384731387 61.231413643551264 H 0.0 **** 0.06
22006 C 83.96731175275275 50.91781151010923 108.32060118606448 C 0.0 **** -0.24
22007 H 84.86174418357501 51.43294834335647 107.97116159999914 H 0.0 **** 0.06
22008 H 83.97545943277777 49.88972384378884 107.95781504229578 H 0.0 **** 0.06
22009 H 83.08262111074436 51.43017192425514 107.94355792447193 H 0.0 **** 0.06
22010 H 83.95050230092247 50.918814713231974 109.41068460116264 H 0.0 **** 0.06
22011 C 108.86069014304664 99.22140959286332 6.776853692759971 C 0.0 **** -0.24
22012 H 109.78363708191412 99.30936810533018 6.202813891174856 H 0.0 **** 0.06
22013 H 108.0055687707153 99.32082446886335 6.107301166631828 H 0.0 **** 0.06
22014 H 108.82576743324087 100.0084910668566 7.530932347929195 H 0.0 **** 0.06
22015 H 108.82838970617176 98.24815001599251 7.266823979061996 H 0.0 **** 0.06
22016 C 22.845284508666282 87.11423596500723 3.508880767990078 C 0.0 **** -0.24
22017 H 22.708237299774964 88.07809657801377 3.9982662253044055 H 0.0 **** 0.06
22018 H 22.14663330969796 87.02690349456356 2.67624400217791 H 0.0 **** 0.06
22019 H 22.659355842627804 86.31291072308096 4.223916969795241 H 0.0 **** 0.06
22020 H 23.866495389966758 87.03841343422846 3.1358946437901807 H 0.0 **** 0.06
22021 C 8.245644138629345 82.15573327453552 72.68116609105155 C 0.0 **** -0.24
22022 H 9.018855930924332 81.91443860514147 71.95185491657674 H 0.0 **** 0.06
22023 H 8.700241573437182 82.28528510221582 73.66357583882004 H 0.0 **** 0.06
22024 H 7.518408129437802 81.3444400325833 72.72065636872699 H 0.0 **** 0.06
22025 H 7.744641548757329 83.07862431744746 72.38723756984436 H 0.0 **** 0.06
22026 C 107.69392820258182 25.77505485987362 101.46940665434352 C 0.0 **** -0.24
22027 H 107.02520156199073 26.34722952865573 100.82588645107427 H 0.0 **** 0.06
22028 H 108.70379171906592 25.803882342516744 101.06106855434285 H 0.0 **** 0.06
22029 H 107.35142111487085 24.741295468095814 101.52065928839994 H 0.0 **** 0.06
22030 H 107.69364307695827 26.20799546761654 102.46953650371023 H 0.0 **** 0.06
22031 C 18.906367827180247 11.140096517312628 86.08818567382266 C 0.0 **** -0.24
22032 H 19.603892972653313 10.550793814324635 86.68307588496725 H 0.0 **** 0.06
22033 H 19.37390640310366 12.085397131696311 85.81221858912423 H 0.0 **** 0.06
22034 H 18.005913959304053 11.335473253361272 86.67099197417724 H 0.0 **** 0.06
22035 H 18.642006448842807 10.588145334095657 85.18567783626264 H 0.0 **** 0.06
22036 C 39.918178536630364 42.439489586807156 17.86450798992306 C 0.0 **** -0.24
22037 H 39.46468419384331 41.78320411892088 17.12212896212809 H 0.0 **** 0.06
22038 H 40.694673001063336 43.04038445328092 17.391442371613095 H 0.0 **** 0.06
22039 H 40.3575688732534 41.838298282769074 18.660441738563936 H 0.0 **** 0.06
22040 H 39.15533988936477 43.09580106548759 18.28270507254758 H 0.0 **** 0.06
22041 C 37.705443685120656 51.10482594565182 99.7871685669609 C 0.0 **** -0.24
22042 H 37.28208869636791 51.7163148672256 100.58361078459194 H 0.0 **** 0.06
22043 H 37.78463660858978 50.07159004202271 100.12604387003631 H 0.0 **** 0.06
22044 H 38.696162297847536 51.47982252575892 99.52914604834365 H 0.0 **** 0.06
22045 H 37.05875910741486 51.15181376353756 98.91126185712213 H 0.0 **** 0.06
22046 C 12.614074949238102 88.87915084282088 85.73482382567332 C 0.0 **** -0.24
22047 H 11.772131275544467 88.24829067380358 86.01933686596908 H 0.0 **** 0.06
22048 H 12.242583020189542 89.78351345576255 85.25140011475986 H 0.0 **** 0.06
22049 H 13.258497704786024 88.33551514332873 85.04324593079983 H 0.0 **** 0.06
22050 H 13.182056380827305 89.15030910094026 86.62437126322936 H 0.0 **** 0.06
22051 C 92.60433004071456 45.70494756273237 46.82886080175933 C 0.0 **** -0.24
22052 H 91.54339248400598 45.80549448534356 47.056564941673 H 0.0 **** 0.06
22053 H 93.07092425337626 46.69039779884025 46.82709910560766 H 0.0 **** 0.06
22054 H 92.72318429664682 45.24397713941684 45.847884567813935 H 0.0 **** 0.06
22055 H 93.07998679919143 45.078527557270036 47.584070087356736 H 0.0 **** 0.06
22056 C 20.12164228305127 82.66839142843895 56.397514041355485 C 0.0 **** -0.24
22057 H 20.613660480757588 83.63542097645555 56.506396508869656 H 0.0 **** 0.06
22058 H 19.14676705386216 82.70001818611982 56.88499273556846 H 0.0 **** 0.06
22059 H 20.73478794714686 81.89527245911182 56.86013788389243 H 0.0 **** 0.06
22060 H 19.991180891904264 82.4440330900895 55.33929076644209 H 0.0 **** 0.06
22061 C 85.30503332156903 84.3637057464172 82.02163495880782 C 0.0 **** -0.24
22062 H 85.797184209884 83.40214758316793 82.1656966149562 H 0.0 **** 0.06
22063 H 85.03494821965575 84.78296600988884 82.99074963101677 H 0.0 **** 0.06
22064 H 84.40440390365973 84.223856851058 81.42291433313713 H 0.0 **** 0.06
22065 H 85.98173946009945 85.04467345728003 81.5067795515632 H 0.0 **** 0.06
22066 C 15.214348219643654 18.91929020722651 65.46719303923413 C 0.0 **** -0.24
22067 H 15.661028264244223 19.68445697530484 64.83236224332705 H 0.0 **** 0.06
22068 H 14.48465348486279 19.38033745044615 66.1328907388093 H 0.0 **** 0.06
22069 H 15.992407579895712 18.437373531645022 66.05799525488518 H 0.0 **** 0.06
22070 H 14.719020668314272 18.174448330408893 64.84337363230617 H 0.0 **** 0.06
22071 C 92.87471729322752 16.78889783549873 39.0532736757805 C 0.0 **** -0.24
22072 H 92.43491324494724 16.577719170153117 40.02782862133654 H 0.0 **** 0.06
22073 H 93.11452682625045 17.8495232698517 38.98441575651293 H 0.0 **** 0.06
22074 H 92.16444408890789 16.5244612311499 38.269675139263086 H 0.0 **** 0.06
22075 H 93.78487008419023 16.201657427691714 38.93106077215813 H 0.0 **** 0.06
22076 C 53.685024566913114 50.84115619507767 70.5770854382906 C 0.0 **** -0.24
22077 H 52.802630623331936 50.305705491717134 70.2251622602808 H 0.0 **** 0.06
22078 H 53.44654029858839 51.36200227430237 71.50462898300279 H 0.0 **** 0.06
22079 H 53.99573237735484 51.56373233436693 69.82230945644491 H 0.0 **** 0.06
22080 H 54.49279667105634 50.131719785596175 70.75519092721262 H 0.0 **** 0.06
22081 C 28.205911153742647 18.77518135992159 72.8596675004004 C 0.0 **** -0.24
22082 H 28.63543260121 19.52784000795083 72.19879863718688 H 0.0 **** 0.06
22083 H 28.84150372375518 18.659071447551582 73.73847410992221 H 0.0 **** 0.06
22084 H 28.139180507415972 17.824111714423736 72.33148009772083 H 0.0 **** 0.06
22085 H 27.209489730888663 19.08962936482692 73.16953548854366 H 0.0 **** 0.06
22086 C 103.4760295483365 12.10843101723782 107.11262294678932 C 0.0 **** -0.24
22087 H 104.37388695104406 11.87292321676145 106.54207715975133 H 0.0 **** 0.06
22088 H 103.47356560957624 13.169641418822394 107.36500738096811 H 0.0 **** 0.06
22089 H 103.46103498832301 11.516240707011846 108.02750117846335 H 0.0 **** 0.06
22090 H 102.59430118364918 11.87555917127051 106.51499913104885 H 0.0 **** 0.06
22091 C 94.5580006346006 77.1703139517744 40.28728029003369 C 0.0 **** -0.24
22092 H 94.83973297822823 76.15091730152096 40.5510107307536 H 0.0 **** 0.06
22093 H 94.30463727178878 77.2139240657655 39.227623457325734 H 0.0 **** 0.06
22094 H 95.39202240043156 77.84223157409147 40.490370921259824 H 0.0 **** 0.06
22095 H 93.69477060892046 77.47321355626698 40.88071284501194 H 0.0 **** 0.06
22096 C 52.74474312695318 58.3966456838938 57.07484929840314 C 0.0 **** -0.24
22097 H 53.71934004207475 58.59603927631458 57.51915479662699 H 0.0 **** 0.06
22098 H 52.520093431946606 59.16143282106545 56.331258987894785 H 0.0 **** 0.06
22099 H 51.98137750436459 58.41165481194768 57.85302926827262 H 0.0 **** 0.06
22100 H 52.75743057099916 57.417015727200464 56.5970820264742 H 0.0 **** 0.06
22101 C 25.50440403048816 28.802041708875535 48.592403473075535 C 0.0 **** -0.24
22102 H 26.00723095576167 28.504827395114816 49.512903960166454 H 0.0 **** 0.06
22103 H 24.941125462707006 29.71932675176143 48.766477726151436 H 0.0 **** 0.06
22104 H 24.823332694814127 28.01118394860206 48.27889717336268 H 0.0 **** 0.06
22105 H 26.246405459002617 28.97336689499152 47.812552237599164 H 0.0 **** 0.06
22106 C 89.91266051550139 40.250478422924914 76.22905834062988 C 0.0 **** -0.24
22107 H 90.24600137400506 39.78360147479128 75.30228805039201 H 0.0 **** 0.06
22108 H 88.87375314936008 40.56507957690013 76.12401521525373 H 0.0 **** 0.06
22109 H 90.53622747139337 41.11854530248726 76.44295208804814 H 0.0 **** 0.06
22110 H 89.99484204654794 39.53345380121377 77.04631063699483 H 0.0 **** 0.06
22111 C 38.39927156031216 11.813172016738765 70.24891569578608 C 0.0 **** -0.24
22112 H 38.32310439650664 12.895287798073717 70.35632798842119 H 0.0 **** 0.06
22113 H 37.58912119977026 11.33686015282537 70.80124874916646 H 0.0 **** 0.06
22114 H 39.357489610771125 11.47555924784512 70.64423733077996 H 0.0 **** 0.06
22115 H 38.32685315918258 11.546906619068974 69.19527125807656 H 0.0 **** 0.06
22116 C 13.866084124633062 91.38460734016985 57.85525507401576 C 0.0 **** -0.24
22117 H 13.309136516538501 91.52785023891164 56.92968055864458 H 0.0 **** 0.06
22118 H 14.851600539850665 90.97692895120014 57.626189103080264 H 0.0 **** 0.06
22119 H 13.326103779331575 90.69250579777633 58.50074560265452 H 0.0 **** 0.06
22120 H 13.978408180696391 92.34279787103128 58.36374663850742 H 0.0 **** 0.06
22121 C 71.27413759737175 36.61220596152086 39.76637287807193 C 0.0 **** -0.24
22122 H 71.86753675262315 36.92524086482081 38.90666127247029 H 0.0 **** 0.06
22123 H 70.4113395274336 37.27019246439326 39.86996169002296 H 0.0 **** 0.06
22124 H 71.88380783164666 36.66830302721846 40.66778048476337 H 0.0 **** 0.06
22125 H 70.93417946121636 35.58702781467511 39.61962608169309 H 0.0 **** 0.06
22126 C 40.816005143999575 13.11045136520238 68.12072748812773 C 0.0 **** -0.24
22127 H 41.283240411130095 13.225568044792738 67.14280073549037 H 0.0 **** 0.06
22128 H 40.206066714733566 12.20629474016846 68.12684160026743 H 0.0 **** 0.06
22129 H 40.1860175766742 13.975167403035357 68.32625645974838 H 0.0 **** 0.06
22130 H 41.587990868032 13.03299851129077 68.88547935212898 H 0.0 **** 0.06
22131 C 112.2826440723469 49.36097306282742 72.91964366835461 C 0.0 **** -0.24
22132 H 113.00558650999187 49.69683447056958 73.66272960502775 H 0.0 **** 0.06
22133 H 111.41101763959966 50.01580787198121 72.93944698351922 H 0.0 **** 0.06
22134 H 111.97486534135919 48.34023428554437 73.1491388951562 H 0.0 **** 0.06
22135 H 112.73784522894402 49.38974407214883 71.93054436770629 H 0.0 **** 0.06
22136 C 49.337386195432664 87.07055777053978 75.98645196158603 C 0.0 **** -0.24
22137 H 50.1537287587922 86.6804524886235 76.59466993404067 H 0.0 **** 0.06
22138 H 49.57320131681902 88.08806043032459 75.67295552167624 H 0.0 **** 0.06
22139 H 48.41781371839588 87.07338565029593 76.57062383940965 H 0.0 **** 0.06
22140 H 49.20769035329601 86.44039371784743 75.10675336114201 H 0.0 **** 0.06
22141 C 34.272838722120355 51.11152261153123 58.584020447261 C 0.0 **** -0.24
22142 H 34.02281692561192 51.41976760502597 59.59930933633794 H 0.0 **** 0.06
22143 H 34.15682222103143 51.9589307343425 57.90842809389338 H 0.0 **** 0.06
22144 H 33.60752205769043 50.305044836567745 58.274053057614566 H 0.0 **** 0.06
22145 H 35.30486939568931 50.76161082336362 58.554324718412175 H 0.0 **** 0.06
22146 C 100.68023046366548 3.2892953883828966 65.52569492926489 C 0.0 **** -0.24
22147 H 101.62414243231899 3.666191044121689 65.92040658398705 H 0.0 **** 0.06
22148 H 100.35775075085706 2.430613746406749 66.11448271476868 H 0.0 **** 0.06
22149 H 100.81476508653236 2.9892962967052483 64.48707358442445 H 0.0 **** 0.06
22150 H 99.92501752240887 4.073941420040001 65.58131385753387 H 0.0 **** 0.06
22151 C 33.793812560521076 64.59981397785009 37.64724883558229 C 0.0 **** -0.24
22152 H 33.930141682621354 65.58837278320021 38.08527420668052 H 0.0 **** 0.06
22153 H 33.130069446352195 64.67374536751197 36.78547818751217 H 0.0 **** 0.06
22154 H 33.353857875963854 63.932559364166906 38.388842108509834 H 0.0 **** 0.06
22155 H 34.75855194467772 64.2058173403957 37.330646795654545 H 0.0 **** 0.06
22156 C 98.11635526326046 87.34898176003497 31.354114971567185 C 0.0 **** -0.24
22157 H 98.72992020462513 88.17437329541451 31.718083905812023 H 0.0 **** 0.06
22158 H 98.48812240992467 86.41118957187456 31.76751842651106 H 0.0 **** 0.06
22159 H 98.16768468432619 87.31201942398508 30.26598655013936 H 0.0 **** 0.06
22160 H 97.0836131124735 87.50071228771736 31.66468504294511 H 0.0 **** 0.06
22161 C 104.11206493853791 110.8361701409516 50.91747102990627 C 0.0 **** -0.24
22162 H 103.51854571114535 110.79367805806817 50.00365606094178 H 0.0 **** 0.06
22163 H 103.90351816742 109.95715727384936 51.52688548789067 H 0.0 **** 0.06
22164 H 103.85350577004084 111.73600013594069 51.47611542140359 H 0.0 **** 0.06
22165 H 105.1712841541495 110.85915245545823 50.6617058170369 H 0.0 **** 0.06
22166 C 16.323412771893324 75.29656956576764 55.90616567656156 C 0.0 **** -0.24
22167 H 17.25012885892033 75.84235549381751 56.08308486107131 H 0.0 **** 0.06
22168 H 16.529551116601265 74.42222495303642 55.2893181792096 H 0.0 **** 0.06
22169 H 15.612714391072426 75.94516963956252 55.39282055556322 H 0.0 **** 0.06
22170 H 15.902133522446842 74.97844860558783 56.860176304755385 H 0.0 **** 0.06
22171 C 61.84577168585528 92.87785163699584 110.60865200325215 C 0.0 **** -0.24
22172 H 62.74719943394118 93.43079632182884 110.87212412604477 H 0.0 **** 0.06
22173 H 62.10058763464349 92.07998965410846 109.91020977357218 H 0.0 **** 0.06
22174 H 61.128289086416885 93.553737126078 110.14387798575848 H 0.0 **** 0.06
22175 H 61.40860878755953 92.44561796397494 111.5093151480106 H 0.0 **** 0.06
22176 C 22.190194774938277 72.64248039879786 98.91204754171798 C 0.0 **** -0.24
22177 H 21.214073427888195 72.88035744986874 99.33399300777461 H 0.0 **** 0.06
22178 H 22.060067319096987 72.02237409456205 98.02481790010657 H 0.0 **** 0.06
22179 H 22.78315885263828 72.1035340499729 99.64969835161415 H 0.0 **** 0.06
22180 H 22.701636767225835 73.56562415063163 98.638825819412 H 0.0 **** 0.06
22181 C 89.89878359905762 46.5405462955909 52.19514803712053 C 0.0 **** -0.24
22182 H 88.8102550854112 46.54148130603241 52.12993109327783 H 0.0 **** 0.06
22183 H 90.21030912390168 45.94231242565988 53.05215944169021 H 0.0 **** 0.06
22184 H 90.25586523946998 47.56295678516571 52.31644870048683 H 0.0 **** 0.06
22185 H 90.316860417947 46.114995324662715 51.283238229087544 H 0.0 **** 0.06
22186 C 9.519761716397227 77.23214261708364 109.20385887927458 C 0.0 **** -0.24
22187 H 9.85119140547448 76.2275722802074 109.46769257360398 H 0.0 **** 0.06
22188 H 8.878789940765728 77.18379529400707 108.32346458194928 H 0.0 **** 0.06
22189 H 10.387279709740824 77.85594451789089 108.98822002391981 H 0.0 **** 0.06
22190 H 8.96228882079339 77.66088313548755 110.03732573163663 H 0.0 **** 0.06
22191 C 83.52117387211689 20.086087219401634 5.484174597103731 C 0.0 **** -0.24
22192 H 84.40257051738931 19.88941896400786 6.095000244549283 H 0.0 **** 0.06
22193 H 83.5792507719056 19.50075880323017 4.565475943753512 H 0.0 **** 0.06
22194 H 83.47785104637421 21.14644288224764 5.238709123038916 H 0.0 **** 0.06
22195 H 82.62512665146221 19.804683462974253 6.038361169323508 H 0.0 **** 0.06
22196 C 36.30045138685402 100.03752512859998 109.48231301750678 C 0.0 **** -0.24
22197 H 35.64664992727739 100.82353702770948 109.85990581556712 H 0.0 **** 0.06
22198 H 35.69842546016697 99.18536290368723 109.1674389214254 H 0.0 **** 0.06
22199 H 36.986610020385086 99.72761207155244 110.26962270103729 H 0.0 **** 0.06
22200 H 36.868659854295636 100.4155499448411 108.63214080478514 H 0.0 **** 0.06
22201 C 11.65940195787751 73.45740870140787 65.3263960259037 C 0.0 **** -0.24
22202 H 10.713519100752862 73.72905854058084 65.79403725873647 H 0.0 **** 0.06
22203 H 12.484442317574018 73.80390546100026 65.94823664249202 H 0.0 **** 0.06
22204 H 11.724812884311252 73.9242432348025 64.34264431670215 H 0.0 **** 0.06
22205 H 11.713465448686645 72.37414955418407 65.21888724061614 H 0.0 **** 0.06
22206 C 101.97737508225777 76.14367112752925 53.33786562665654 C 0.0 **** -0.24
22207 H 101.36383988714005 76.81785872557194 53.93689662131081 H 0.0 **** 0.06
22208 H 102.4394324010263 75.39963091789645 53.98772458401272 H 0.0 **** 0.06
22209 H 102.7537599332731 76.71488448496692 52.82987527543094 H 0.0 **** 0.06
22210 H 101.35136003218076 75.6433634672178 52.599547438324265 H 0.0 **** 0.06
22211 C 84.09649422606955 54.63604572044357 50.01289526880498 C 0.0 **** -0.24
22212 H 84.3901623186342 55.29052001813509 50.83377519477574 H 0.0 **** 0.06
22213 H 83.5854908403212 53.75943371855546 50.412500565455446 H 0.0 **** 0.06
22214 H 84.98392567336339 54.321748431647336 49.46352105040995 H 0.0 **** 0.06
22215 H 83.4255823337634 55.17351073841225 49.34230745975407 H 0.0 **** 0.06
22216 C 56.02755579533573 43.028311799300866 14.555526444097097 C 0.0 **** -0.24
22217 H 55.5609574713275 42.185881313259074 14.046555741171659 H 0.0 **** 0.06
22218 H 56.48177595998617 42.68456715604731 15.485022044417917 H 0.0 **** 0.06
22219 H 55.27305992723362 43.78294283685443 14.777464195298904 H 0.0 **** 0.06
22220 H 56.79595081982955 43.460310028834044 13.913756974453207 H 0.0 **** 0.06
22221 C 30.531336063318804 25.634946800505663 35.961475497602066 C 0.0 **** -0.24
22222 H 31.56064778417644 25.991939818345983 35.971756330265464 H 0.0 **** 0.06
22223 H 30.144989897637956 25.609229718107844 36.98123466516154 H 0.0 **** 0.06
22224 H 30.497512218589378 24.632586588557245 35.53459923658903 H 0.0 **** 0.06
22225 H 29.91951496660471 26.306928896793536 35.358435300548194 H 0.0 **** 0.06
22226 C 39.95036936591768 24.74996618241616 36.892059101119095 C 0.0 **** -0.24
22227 H 40.06670517122201 24.010564459213835 36.100185110467 H 0.0 **** 0.06
22228 H 40.934427138440036 25.073574264997777 37.23342047118395 H 0.0 **** 0.06
22229 H 39.40416082408288 24.308330866970156 37.72541367945333 H 0.0 **** 0.06
22230 H 39.39801577640617 25.608535031684532 36.509805981973024 H 0.0 **** 0.06
22231 C 77.31666917923755 93.08401811861191 14.672056272377517 C 0.0 **** -0.24
22232 H 77.85476481479259 92.87307772923441 13.747405700025212 H 0.0 **** 0.06
22233 H 76.45382293504855 92.42199277414034 14.749504514865976 H 0.0 **** 0.06
22234 H 76.98049035222874 94.1209770221866 14.667536246869304 H 0.0 **** 0.06
22235 H 77.97895104270086 92.92103738301174 15.52270804705364 H 0.0 **** 0.06
22236 C 79.15594464793139 54.26699266924032 40.82509515362119 C 0.0 **** -0.24
22237 H 79.16655321602968 55.25089287125244 41.29415937696629 H 0.0 **** 0.06
22238 H 78.1320255509483 54.006251150574386 40.55301416441699 H 0.0 **** 0.06
22239 H 79.5464470162209 53.52729981233824 41.523116426705556 H 0.0 **** 0.06
22240 H 79.77613893717103 54.28608519936376 39.929301164070836 H 0.0 **** 0.06
22241 C 26.323831390223205 0.35935798460458557 42.635687131999305 C 0.0 **** -0.24
22242 H 26.125490347514443 0.5262167066878902 41.576533017813915 H 0.0 **** 0.06
22243 H 27.35741945487763 0.6268114921979446 42.857041519896654 H 0.0 **** 0.06
22244 H 26.160442003885066 -0.6917351381846117 42.874409914432306 H 0.0 **** 0.06
22245 H 25.652060479739674 0.9764235642331585 43.231778788120664 H 0.0 **** 0.06
22246 C 85.31156998891635 54.21367074562613 62.84365873907163 C 0.0 **** -0.24
22247 H 86.25463926201706 54.76094576825594 62.84799822702416 H 0.0 **** 0.06
22248 H 84.50160363588708 54.886052509561154 63.13153861946475 H 0.0 **** 0.06
22249 H 85.36786962489509 53.3884470895205 63.552592150189554 H 0.0 **** 0.06
22250 H 85.12261721540892 53.82364172346226 61.84405604789873 H 0.0 **** 0.06
22251 C 30.411478505995632 48.99424918129904 65.69806312516769 C 0.0 **** -0.24
22252 H 30.492072947783775 49.39211335236007 66.70968312826457 H 0.0 **** 0.06
22253 H 29.58442788402745 48.285738829699426 65.65037927282114 H 0.0 **** 0.06
22254 H 31.339519878665392 48.48895873646603 65.43178482797038 H 0.0 **** 0.06
22255 H 30.230103798970212 49.81241200262832 65.00039969967386 H 0.0 **** 0.06
22256 C 61.572029814203376 97.7179608401978 21.07565406738571 C 0.0 **** -0.24
22257 H 62.549045574489895 97.99774977640809 20.681805445635174 H 0.0 **** 0.06
22258 H 61.23492846356194 96.7996772855883 20.59294972354303 H 0.0 **** 0.06
22259 H 60.85743850888301 98.51719638927446 20.87645002686503 H 0.0 **** 0.06
22260 H 61.64670670987857 97.55721990952023 22.151411073499577 H 0.0 **** 0.06
22261 C 52.851026711843055 22.509591316312935 32.09285380530801 C 0.0 **** -0.24
22262 H 52.655967862115396 21.463994957041677 31.852043180993775 H 0.0 **** 0.06
22263 H 52.04580263099909 22.89313631235052 32.72123659728359 H 0.0 **** 0.06
22264 H 52.90286200532751 23.09082591196386 31.17305124539334 H 0.0 **** 0.06
22265 H 53.79788544894196 22.587875826270192 32.62683455433273 H 0.0 **** 0.06
22266 C 30.506175744086306 77.38784407272533 78.5475502689437 C 0.0 **** -0.24
22267 H 30.754453579169763 76.66400497459438 77.77180003531987 H 0.0 **** 0.06
22268 H 29.47581238930499 77.7209177201986 78.41714790454841 H 0.0 **** 0.06
22269 H 31.17680371659634 78.24444745385267 78.47258215576917 H 0.0 **** 0.06
22270 H 30.617203865954394 76.92396320218336 79.5272617779959 H 0.0 **** 0.06
22271 C 34.604357026515686 26.86938545851325 15.295457206545294 C 0.0 **** -0.24
22272 H 35.446616213768436 26.47784398506417 14.725161566828898 H 0.0 **** 0.06
22273 H 34.975791753142346 27.48950586712226 16.111782728408595 H 0.0 **** 0.06
22274 H 34.024810902900754 26.041933474075137 15.702325464996449 H 0.0 **** 0.06
22275 H 33.971370700454884 27.470062581517197 14.641929302090468 H 0.0 **** 0.06
22276 C 48.16336414960421 89.67192984664365 4.060643866304844 C 0.0 **** -0.24
22277 H 48.64711821875078 90.56133786092374 3.6590088622865125 H 0.0 **** 0.06
22278 H 48.92341922516042 88.94485350044377 4.349908046778509 H 0.0 **** 0.06
22279 H 47.51514758382591 89.2361320840968 3.300672841440175 H 0.0 **** 0.06
22280 H 47.56940029839151 89.94358285462371 4.93274014644598 H 0.0 **** 0.06
22281 C 107.03784174107963 68.76376676298446 21.732869382880722 C 0.0 **** -0.24
22282 H 106.53151214202094 69.21121905888262 22.58838454444208 H 0.0 **** 0.06
22283 H 108.0089638811854 69.24162242851884 21.595755335542094 H 0.0 **** 0.06
22284 H 106.43309333955585 68.90731449988607 20.837913651740223 H 0.0 **** 0.06
22285 H 107.17848859083972 67.69790884021563 21.910156422290186 H 0.0 **** 0.06
22286 C 71.06822707138511 61.53781827425514 33.550771851634636 C 0.0 **** -0.24
22287 H 70.07667921610815 61.725727362417395 33.14053857737639 H 0.0 **** 0.06
22288 H 71.05573451963227 61.71406894005863 34.62685599780019 H 0.0 **** 0.06
22289 H 71.78842147031011 62.20882244766657 33.08119023762373 H 0.0 **** 0.06
22290 H 71.35298224914183 60.504035875009315 33.3550173371093 H 0.0 **** 0.06
22291 C 47.89897158650791 45.84960446647652 43.743916767663904 C 0.0 **** -0.24
22292 H 48.97102161032785 45.90572880296548 43.55640632379742 H 0.0 **** 0.06
22293 H 47.54284083168369 44.84501434073687 43.517302748452195 H 0.0 **** 0.06
22294 H 47.381957948984336 46.5702743837165 43.109754958711065 H 0.0 **** 0.06
22295 H 47.70063685060239 46.07846957051471 44.790965707364705 H 0.0 **** 0.06
22296 C 87.52429688029974 106.33029174068756 13.690000904691715 C 0.0 **** -0.24
22297 H 87.99401515283998 105.34791183671825 13.648397772145415 H 0.0 **** 0.06
22298 H 86.78667969359182 106.34576840905956 14.492973384887364 H 0.0 **** 0.06
22299 H 87.03287145516654 106.5394664957401 12.739998618637344 H 0.0 **** 0.06
22300 H 88.28463807013526 107.08859465177215 13.880540758973751 H 0.0 **** 0.06
22301 C 40.26707123433715 14.673004139188883 26.85731079833073 C 0.0 **** -0.24
22302 H 40.23137725634655 15.096972000439528 27.861078006831875 H 0.0 **** 0.06
22303 H 41.28751396243547 14.361240496717269 26.6312653508067 H 0.0 **** 0.06
22304 H 39.94706274031478 15.423385387229008 26.134326053891783 H 0.0 **** 0.06
22305 H 39.60313185654394 13.809720238685696 26.803507000843993 H 0.0 **** 0.06
22306 C 41.8510254787158 59.87524038377319 13.507802795081034 C 0.0 **** -0.24
22307 H 42.735385571513376 60.49334025096704 13.35438784803955 H 0.0 **** 0.06
22308 H 40.96321614766819 60.429971160511286 13.202873634872503 H 0.0 **** 0.06
22309 H 41.77026625697562 59.60961965475286 14.561612520378219 H 0.0 **** 0.06
22310 H 41.935188089547836 58.966799595464465 12.910470861906731 H 0.0 **** 0.06
22311 C 104.65214241275427 104.25845704584532 25.84953586403151 C 0.0 **** -0.24
22312 H 105.17379310359075 103.50500933103856 26.440106363113244 H 0.0 **** 0.06
22313 H 104.03618533675592 103.76645803987685 25.096571544528388 H 0.0 **** 0.06
22314 H 105.38080652453385 104.90392805003171 25.35884940699409 H 0.0 **** 0.06
22315 H 104.01810982819836 104.85733681293317 26.503448782336278 H 0.0 **** 0.06
22316 C 85.63397078126738 73.38681390581004 9.110481009889199 C 0.0 **** -0.24
22317 H 85.00722698394023 72.7629118150924 8.4728582271903 H 0.0 **** 0.06
22318 H 86.00284754161515 74.23773674654296 8.5363401391065 H 0.0 **** 0.06
22319 H 86.47826013280121 72.80157536358988 9.475003622528888 H 0.0 **** 0.06
22320 H 85.0482687667197 73.74545362569182 9.956204383077619 H 0.0 **** 0.06
22321 C 97.75200839046454 22.362406865799983 47.28658386702058 C 0.0 **** -0.24
22322 H 98.56077112788822 22.13588192564336 46.592038217811904 H 0.0 **** 0.06
22323 H 97.9200316536255 23.3444312641644 47.7299806602652 H 0.0 **** 0.06
22324 H 97.7263834223848 21.607739437285886 48.072006533102304 H 0.0 **** 0.06
22325 H 96.8025102599432 22.36270549053515 46.75133196632732 H 0.0 **** 0.06
22326 C 61.70876964042378 10.391822765843187 78.25749845926975 C 0.0 **** -0.24
22327 H 62.43227985614777 10.494107078082266 79.06635461530993 H 0.0 **** 0.06
22328 H 62.212539690974666 10.01792965457804 77.36539076236181 H 0.0 **** 0.06
22329 H 61.26386381077481 11.363233630338954 78.04337679630919 H 0.0 **** 0.06
22330 H 60.92822630920375 9.691216392029503 78.5548908457638 H 0.0 **** 0.06
22331 C 68.65799343026606 81.76001113737647 88.05696034966894 C 0.0 **** -0.24
22332 H 67.60406530302913 81.48163171788966 88.08583676454049 H 0.0 **** 0.06
22333 H 68.8153597758971 82.65029270262235 88.66563755757096 H 0.0 **** 0.06
22334 H 68.95028908573164 81.96661817046461 87.02703112038517 H 0.0 **** 0.06
22335 H 69.26069828634769 80.940149862418 88.44847889402917 H 0.0 **** 0.06
22336 C 96.64121456649309 110.51379490046102 57.81380192885615 C 0.0 **** -0.24
22337 H 95.59972603213129 110.31760101682453 57.56011323953754 H 0.0 **** 0.06
22338 H 97.05695095247134 111.2351424242881 57.10980446009523 H 0.0 **** 0.06
22339 H 97.20895207687275 109.58457704192273 57.759444631518875 H 0.0 **** 0.06
22340 H 96.6996756767708 110.91716976409239 58.82527485004363 H 0.0 **** 0.06
22341 C 16.758137000153027 109.60511220298454 5.45997579884021 C 0.0 **** -0.24
22342 H 15.915120649000215 109.99513603450109 4.888812700924193 H 0.0 **** 0.06
22343 H 17.251316709250744 110.42514086108355 5.982277613039418 H 0.0 **** 0.06
22344 H 17.465700482621344 109.1275306430012 4.782620552562696 H 0.0 **** 0.06
22345 H 16.398717226469927 108.87548731851072 6.184450261663013 H 0.0 **** 0.06
22346 C 74.39360650512052 99.33498970712296 27.22808442778375 C 0.0 **** -0.24
22347 H 73.84902272795742 99.56809619469078 26.312626993409268 H 0.0 **** 0.06
22348 H 74.58235175161212 100.25393343542345 27.782389400150933 H 0.0 **** 0.06
22349 H 75.34124455794648 98.86073294920476 26.973976174457697 H 0.0 **** 0.06
22350 H 73.8000206045528 98.65579856506989 27.839901845915897 H 0.0 **** 0.06
22351 C 111.8601452935062 15.230912197148314 92.87625920934093 C 0.0 **** -0.24
22352 H 111.58908915140411 15.494479178160702 91.85463387582521 H 0.0 **** 0.06
22353 H 112.80144165426644 14.67978866776619 92.87101490141754 H 0.0 **** 0.06
22354 H 111.07760691790705 14.6096009104443 93.31086974625842 H 0.0 **** 0.06
22355 H 111.97398045916535 16.139010315200323 93.46830545222412 H 0.0 **** 0.06
22356 C 103.89773880417877 75.85761638022373 83.18646468787142 C 0.0 **** -0.24
22357 H 104.22794725398185 76.86268665309007 82.9225090857725 H 0.0 **** 0.06
22358 H 104.55583802127339 75.4487870521427 83.95360576153598 H 0.0 **** 0.06
22359 H 103.92842826977551 75.22191412955772 82.3024369124847 H 0.0 **** 0.06
22360 H 102.87729602290204 75.90027644435784 83.5681308743543 H 0.0 **** 0.06
22361 C 44.6851179973108 84.538160084987 106.21457820826794 C 0.0 **** -0.24
22362 H 44.29533086016868 85.22189770580258 106.9680940960202 H 0.0 **** 0.06
22363 H 43.869058312966054 83.93551052339217 105.81289472268284 H 0.0 **** 0.06
22364 H 45.42998886737482 83.88429412129977 106.66853866697234 H 0.0 **** 0.06
22365 H 45.14561107653201 85.10960876165109 105.40879541385695 H 0.0 **** 0.06
22366 C 74.34371441570298 90.95746800465301 107.47080775520628 C 0.0 **** -0.24
22367 H 75.40247173000006 90.8912105300443 107.22045543893256 H 0.0 **** 0.06
22368 H 73.81507759072568 91.48643705270615 106.6777023061456 H 0.0 **** 0.06
22369 H 74.22494220974164 91.49637538518394 108.41006773549364 H 0.0 **** 0.06
22370 H 73.93291033334589 89.95325293727191 107.57402345357504 H 0.0 **** 0.06
22371 C 100.46552050254894 47.81977963369607 27.578039345088577 C 0.0 **** -0.24
22372 H 101.35471800919379 47.86408873153732 28.20657483689841 H 0.0 **** 0.06
22373 H 99.70524688899368 47.209755404093926 28.067414404087188 H 0.0 **** 0.06
22374 H 100.72176742682342 47.37764921139856 26.615644649428297 H 0.0 **** 0.06
22375 H 100.07957286882262 48.82716484701902 27.423611955003523 H 0.0 **** 0.06
22376 C 86.54382244356665 104.46427784135628 56.184520790046854 C 0.0 **** -0.24
22377 H 86.72968518790373 103.92649522502066 57.11386208871701 H 0.0 **** 0.06
22378 H 86.76585044159592 105.52218919036682 56.3256574326079 H 0.0 **** 0.06
22379 H 85.49741800673775 104.34665649161829 55.9009129157688 H 0.0 **** 0.06
22380 H 87.18096242956335 104.06008929172734 55.39711510455171 H 0.0 **** 0.06
22381 C 100.36835155847913 36.120728157360304 10.075774691744243 C 0.0 **** -0.24
22382 H 99.97706883770113 36.64219184621223 9.201873736891741 H 0.0 **** 0.06
22383 H 101.01012615651064 36.795475786674444 10.642820038799826 H 0.0 **** 0.06
22384 H 100.94719518324143 35.25564925725095 9.751688338645778 H 0.0 **** 0.06
22385 H 99.54150280898114 35.79051555007297 10.70355896767029 H 0.0 **** 0.06
22386 C 74.83324521754793 14.994348624089007 109.92521445336176 C 0.0 **** -0.24
22387 H 74.844873667943 16.071647343037665 110.09536064696101 H 0.0 **** 0.06
22388 H 75.50864676131854 14.74868317710758 109.1055647438783 H 0.0 **** 0.06
22389 H 73.82179503566493 14.67833224663196 109.66979407353453 H 0.0 **** 0.06
22390 H 75.15722111712071 14.480073328922618 110.83008512601941 H 0.0 **** 0.06
22391 C 4.574134186703178 59.528699040914034 8.97787141983298 C 0.0 **** -0.24
22392 H 5.33156097771381 58.912018852968004 9.46012395130748 H 0.0 **** 0.06
22393 H 3.5847653079958217 59.131131112803814 9.203752681770908 H 0.0 **** 0.06
22394 H 4.731099302027928 59.51952285259466 7.899011757278004 H 0.0 **** 0.06
22395 H 4.648190383586872 60.55159055209026 9.347230367588992 H 0.0 **** 0.06
22396 C 43.798516101828696 72.54859765320754 51.08866726320827 C 0.0 **** -0.24
22397 H 43.474594944123886 73.19497018778316 51.904097820729035 H 0.0 **** 0.06
22398 H 43.657649879575786 71.50635559324314 51.37368926736487 H 0.0 **** 0.06
22399 H 44.852290017885615 72.72958087358506 50.878507905946734 H 0.0 **** 0.06
22400 H 43.20756872291294 72.76548006641383 50.19796041484881 H 0.0 **** 0.06
22401 C 66.83162443898888 6.295551902149157 14.071066700980964 C 0.0 **** -0.24
22402 H 67.87939862478697 6.2373558612845414 14.363208411215965 H 0.0 **** 0.06
22403 H 66.67877194809736 5.732425089126252 13.150125483051 H 0.0 **** 0.06
22404 H 66.55729733027357 7.338095898151209 13.909023308494653 H 0.0 **** 0.06
22405 H 66.21028349541035 5.875505257114213 14.861657369706549 H 0.0 **** 0.06
22406 C 74.46698340682377 80.43796390763256 12.835733460671936 C 0.0 **** -0.24
22407 H 74.96480454784572 80.38714575361513 11.866967202669503 H 0.0 **** 0.06
22408 H 74.2707388169377 79.42827104679426 13.196042718218123 H 0.0 **** 0.06
22409 H 73.52556802611326 80.976668044658 12.732504260515853 H 0.0 **** 0.06
22410 H 75.10819498051166 80.9602850287757 13.546497003392453 H 0.0 **** 0.06
22411 C 42.916737676725035 28.862451263015316 47.66514012105594 C 0.0 **** -0.24
22412 H 43.442640097423464 29.5613103161526 47.01509471853123 H 0.0 **** 0.06
22413 H 42.89232742313902 29.258023010811485 48.679672240838016 H 0.0 **** 0.06
22414 H 43.43418722862768 27.90295892724575 47.660918123143546 H 0.0 **** 0.06
22415 H 41.89776602007329 28.726097194442616 47.303144663618156 H 0.0 **** 0.06
22416 C 95.53748627972786 103.44894850448676 63.06855209849265 C 0.0 **** -0.24
22417 H 95.17838875557482 103.26117197790347 62.057284446387065 H 0.0 **** 0.06
22418 H 94.73679891476803 103.88672163454177 63.66404414510378 H 0.0 **** 0.06
22419 H 96.38234524910288 104.13717898903647 63.03208910370903 H 0.0 **** 0.06
22420 H 95.85478559861193 102.50889268689104 63.52094312957174 H 0.0 **** 0.06
22421 C 18.98963714432179 29.72496218967006 111.8755293608537 C 0.0 **** -0.24
22422 H 18.178908143481095 29.088823629100467 112.23255692775058 H 0.0 **** 0.06
22423 H 19.929231548848634 29.403715204601518 112.32570283051462 H 0.0 **** 0.06
22424 H 18.787726580559536 30.759526461268628 112.15518870688862 H 0.0 **** 0.06
22425 H 19.059918259172306 29.648510604323008 110.79086717250374 H 0.0 **** 0.06
22426 C 57.75980637243538 16.52382616141808 0.9904927741699794 C 0.0 **** -0.24
22427 H 58.486222949236435 17.289317517227225 1.2649310737744486 H 0.0 **** 0.06
22428 H 58.28348730640221 15.610438009222506 0.7087309215755226 H 0.0 **** 0.06
22429 H 57.162771756346956 16.87454203544617 0.1479623586600951 H 0.0 **** 0.06
22430 H 57.10692189362504 16.321643909827028 1.8390966491509744 H 0.0 **** 0.06
22431 C 63.96990794091971 75.44305827523294 65.59227394511146 C 0.0 **** -0.24
22432 H 64.97469075243507 75.02167748137578 65.6264518648926 H 0.0 **** 0.06
22433 H 63.9920703659709 76.4659508293156 65.97024898142203 H 0.0 **** 0.06
22434 H 63.302277106976845 74.84196603995983 66.21026879349506 H 0.0 **** 0.06
22435 H 63.611071717673354 75.44409791717734 64.56292760593314 H 0.0 **** 0.06
22436 C 33.067003170544524 87.61104421926393 69.32433284334058 C 0.0 **** -0.24
22437 H 33.14808855674113 86.88043811072475 68.52036942038848 H 0.0 **** 0.06
22438 H 32.27179887039256 88.31963857278151 69.09276092861808 H 0.0 **** 0.06
22439 H 34.011989445686766 88.14539884919247 69.42615869635426 H 0.0 **** 0.06
22440 H 32.83729256758136 87.09932880911697 70.25916854669998 H 0.0 **** 0.06
22441 C 18.019917042598678 55.938696066455265 111.28609149913058 C 0.0 **** -0.24
22442 H 18.122976892783754 55.01570130345178 111.85652178824972 H 0.0 **** 0.06
22443 H 18.20395721648225 55.73480056330513 110.230477780878 H 0.0 **** 0.06
22444 H 18.741662557859257 56.67157222227554 111.64677604548439 H 0.0 **** 0.06
22445 H 17.010437281897254 56.33136370501277 111.409704409462 H 0.0 **** 0.06
22446 C 52.487283656174924 11.721239984054137 80.84871929796401 C 0.0 **** -0.24
22447 H 52.2305325230526 11.100715917555306 81.70782649803465 H 0.0 **** 0.06
22448 H 53.332313993949384 12.361127576193041 81.10361733684238 H 0.0 **** 0.06
22449 H 51.63141986472985 12.339748700907307 80.57963661363232 H 0.0 **** 0.06
22450 H 52.754308565541436 11.082805745584722 80.00731408028088 H 0.0 **** 0.06
22451 C 2.8085883603810373 44.373169201814875 83.79883574134664 C 0.0 **** -0.24
22452 H 2.9164417288938296 45.43903508808853 83.59338731548402 H 0.0 **** 0.06
22453 H 3.793451221601785 43.92866039135973 83.93573843908047 H 0.0 **** 0.06
22454 H 2.305472904181201 43.891367203641664 82.96056904553436 H 0.0 **** 0.06
22455 H 2.217957590495601 44.23682764284655 84.70403162597256 H 0.0 **** 0.06
22456 C 12.716342575729627 75.76638671006049 54.104162134796304 C 0.0 **** -0.24
22457 H 11.745340385648348 76.2262058108243 54.288356426312 H 0.0 **** 0.06
22458 H 12.830554970289029 75.57431494883309 53.03732833548626 H 0.0 **** 0.06
22459 H 12.783935743294819 74.82712732362052 54.65314242719617 H 0.0 **** 0.06
22460 H 13.505387019530659 76.4406414123386 54.43902766357983 H 0.0 **** 0.06
22461 C 43.78590384805551 18.233593268799012 46.94450563714088 C 0.0 **** -0.24
22462 H 43.31145179336892 17.420719862394293 47.495999581857745 H 0.0 **** 0.06
22463 H 43.034650114709535 18.75922413469928 46.35539496075478 H 0.0 **** 0.06
22464 H 44.548244871666995 17.825061226088025 46.280995173636654 H 0.0 **** 0.06
22465 H 44.249111708093594 18.92704212770883 47.64638564557811 H 0.0 **** 0.06
22466 C 6.865794636783644 30.927065450184216 106.94790366144274 C 0.0 **** -0.24
22467 H 5.958762720698816 31.183816252541476 107.49514905298096 H 0.0 **** 0.06
22468 H 6.629393454873762 30.80888474358005 105.88978633867876 H 0.0 **** 0.06
22469 H 7.272699496911871 29.993894360811993 107.33559743511047 H 0.0 **** 0.06
22470 H 7.601359127376284 31.723178426748717 107.06941285551818 H 0.0 **** 0.06
22471 C 35.09753332297365 17.00480277899302 38.54235031382749 C 0.0 **** -0.24
22472 H 35.68360791960936 16.24850777828465 38.02041562802581 H 0.0 **** 0.06
22473 H 35.24843200773426 17.97392462407474 38.06589478006479 H 0.0 **** 0.06
22474 H 35.417557750838924 17.057233689053287 39.582973565831225 H 0.0 **** 0.06
22475 H 34.04149310724921 16.738522499073046 38.50031160380883 H 0.0 **** 0.06
22476 C 25.244532523611213 72.92467975598845 80.37054735545925 C 0.0 **** -0.24
22477 H 26.215226575842223 72.58383172107807 80.7307973652351 H 0.0 **** 0.06
22478 H 24.959361706753498 72.34646390913517 79.4915061479484 H 0.0 **** 0.06
22479 H 25.305103659464407 73.98067910339554 80.10679383298239 H 0.0 **** 0.06
22480 H 24.49867222820535 72.78851379336868 81.15368632337223 H 0.0 **** 0.06
22481 C 77.45739178090597 43.66434397887201 75.7291475006293 C 0.0 **** -0.24
22482 H 76.38006880206595 43.824488858048 75.67425420704211 H 0.0 **** 0.06
22483 H 77.97519873314539 44.56272494214582 75.39342740231436 H 0.0 **** 0.06
22484 H 77.73196811509706 42.82536302523275 75.089789085148 H 0.0 **** 0.06
22485 H 77.73938179572917 43.444445947703855 76.75870073529018 H 0.0 **** 0.06
22486 C 47.45756279861466 10.01769796806019 31.91479088767582 C 0.0 **** -0.24
22487 H 46.81234007832279 10.017742105845372 32.79367885895829 H 0.0 **** 0.06
22488 H 46.86614431136834 9.780178866518156 31.029977746497337 H 0.0 **** 0.06
22489 H 48.24216024894023 9.272043307937878 32.040155609795335 H 0.0 **** 0.06
22490 H 47.908855919773735 11.003517369842086 31.79644776185728 H 0.0 **** 0.06
22491 C 42.624211948546815 70.55626405544336 27.273350408891588 C 0.0 **** -0.24
22492 H 42.108728957850644 69.68937781613425 27.68549827813859 H 0.0 **** 0.06
22493 H 42.65049253519089 71.35197618562918 28.01889988178292 H 0.0 **** 0.06
22494 H 42.09348411318183 70.9067349058488 26.387442057298678 H 0.0 **** 0.06
22495 H 43.641853385643174 70.27889447624412 27.00134246457261 H 0.0 **** 0.06
22496 C 103.42174505221709 88.83777987250275 65.39928146319372 C 0.0 **** -0.24
22497 H 103.04207920413214 89.29768082206633 64.48656881183553 H 0.0 **** 0.06
22498 H 103.90815549978038 87.89302882339157 65.1543819339378 H 0.0 **** 0.06
22499 H 102.5944367863708 88.65404543568215 66.08433550873394 H 0.0 **** 0.06
22500 H 104.14265877776339 89.50691031995288 65.86947744247158 H 0.0 **** 0.06
22501 C 67.67167408593409 4.208361724612615 80.85549553928419 C 0.0 **** -0.24
22502 H 67.77247774138723 3.1336708664889272 80.70259166476663 H 0.0 **** 0.06
22503 H 68.36191406838213 4.529913737355201 81.63598673716481 H 0.0 **** 0.06
22504 H 66.64948759452295 4.438309679861533 81.15730200961241 H 0.0 **** 0.06
22505 H 67.90334789837979 4.7305658335388046 79.92742254672507 H 0.0 **** 0.06
22506 C 33.58199816089103 28.216265723418502 99.70410737639187 C 0.0 **** -0.24
22507 H 33.76278483140601 28.947744578745954 98.91715426887552 H 0.0 **** 0.06
22508 H 34.33732574637233 27.431265802497677 99.65104293287635 H 0.0 **** 0.06
22509 H 32.592537275049665 27.77768587528564 99.57235268647315 H 0.0 **** 0.06
22510 H 33.6347911096598 28.70620819091252 100.67569298736998 H 0.0 **** 0.06
22511 C 34.41068977467279 47.513050526902106 79.3480727245834 C 0.0 **** -0.24
22512 H 34.025962420556084 48.46267149512471 79.72201036074375 H 0.0 **** 0.06
22513 H 35.296253388687376 47.23099771636515 79.91896043448736 H 0.0 **** 0.06
22514 H 34.67267755774989 47.61595387036357 78.2952960803425 H 0.0 **** 0.06
22515 H 33.646673222564885 46.74407281019472 79.45924074844766 H 0.0 **** 0.06
22516 C 67.0926855953677 83.7807288470189 104.15493511352994 C 0.0 **** -0.24
22517 H 66.85145366053962 82.90076409979099 103.5578064480267 H 0.0 **** 0.06
22518 H 66.89002104144481 83.57326499473871 105.20561737528087 H 0.0 **** 0.06
22519 H 66.48315005795234 84.62152150489851 103.82553040691502 H 0.0 **** 0.06
22520 H 68.14715432033506 84.02558266807512 104.0299204378505 H 0.0 **** 0.06
22521 C 5.948395711862105 52.51433550178711 11.162864031863393 C 0.0 **** -0.24
22522 H 6.0452244691203845 53.238711565397196 10.354112584214676 H 0.0 **** 0.06
22523 H 6.485679912496494 52.87681738764579 12.040634559174293 H 0.0 **** 0.06
22524 H 6.370118938446694 51.559676903522686 10.847881667884351 H 0.0 **** 0.06
22525 H 4.8952048662440575 52.38344833344173 11.409357286913234 H 0.0 **** 0.06
22526 C 111.94543090151501 80.31568722625008 1.7597434431797012 C 0.0 **** -0.24
22527 H 112.87537300125004 80.87447114210497 1.8629742173450552 H 0.0 **** 0.06
22528 H 111.5719201583432 80.4153268513347 0.7406271319568134 H 0.0 **** 0.06
22529 H 111.20638097669789 80.7092282486183 2.457954076451472 H 0.0 **** 0.06
22530 H 112.12809162847174 79.26309500507801 1.9795641689213994 H 0.0 **** 0.06
22531 C 78.94601367215239 15.319167929501162 73.95940794884285 C 0.0 **** -0.24
22532 H 79.46845549588667 14.694113372614353 73.23492761469393 H 0.0 **** 0.06
22533 H 79.65786040625517 15.69563251937376 74.6945984533096 H 0.0 **** 0.06
22534 H 78.18019042563455 14.729405748272399 74.46275344585936 H 0.0 **** 0.06
22535 H 78.47789106365337 16.157411364098152 73.44441911869072 H 0.0 **** 0.06
22536 C 78.91599137356766 100.04941187352418 49.178182749472455 C 0.0 **** -0.24
22537 H 78.44914243706944 99.11638829742498 48.863291593270844 H 0.0 **** 0.06
22538 H 79.27951536291698 99.9460761194816 50.20073711979086 H 0.0 **** 0.06
22539 H 78.18266226612326 100.85445639911734 49.13347135993658 H 0.0 **** 0.06
22540 H 79.74998572462096 100.28009938326542 48.516469064146975 H 0.0 **** 0.06
22541 C 18.05385839642566 109.93208428957072 56.33479155852919 C 0.0 **** -0.24
22542 H 17.508965025027283 110.8666765123441 56.19841696480622 H 0.0 **** 0.06
22543 H 18.129745194699783 109.41392974212152 55.37925432604227 H 0.0 **** 0.06
22544 H 17.522194818988954 109.30354683613479 57.04919263586445 H 0.0 **** 0.06
22545 H 19.053475615706677 110.14593074163469 56.71321923130613 H 0.0 **** 0.06
22546 C 24.564984751571927 87.38703257890666 27.182363366497015 C 0.0 **** -0.24
22547 H 23.623052583018534 87.17780410229423 27.689291978538044 H 0.0 **** 0.06
22548 H 24.93104604577239 88.36770486914259 27.485942623197765 H 0.0 **** 0.06
22549 H 24.407410038443032 87.37492641047669 26.103428199088526 H 0.0 **** 0.06
22550 H 25.297683694986432 86.62586396240008 27.450490176257638 H 0.0 **** 0.06
22551 C 21.190162964222086 95.700408508664 88.82876954707345 C 0.0 **** -0.24
22552 H 22.039245288516362 95.3478785643419 89.41356197474269 H 0.0 **** 0.06
22553 H 20.27389149233137 95.24972942673466 89.21132855749255 H 0.0 **** 0.06
22554 H 21.326004961747863 95.41974597406673 87.7846427134576 H 0.0 **** 0.06
22555 H 21.12082824674259 96.78554375058289 88.90725913349326 H 0.0 **** 0.06
22556 C 3.3732075151442302 63.936048846002166 27.794054650733926 C 0.0 **** -0.24
22557 H 4.036002070112332 63.1096414590929 28.050112421473216 H 0.0 **** 0.06
22558 H 2.3417806096061895 63.58252742969296 27.776093710473646 H 0.0 **** 0.06
22559 H 3.6418794671268557 64.32539799795262 26.811855571162155 H 0.0 **** 0.06
22560 H 3.474397430537465 64.72593302223174 28.538088224197153 H 0.0 **** 0.06
22561 C 47.96817359465837 111.48379556427744 53.78753567035409 C 0.0 **** -0.24
22562 H 47.92604223908302 110.76378674038637 52.97062710785917 H 0.0 **** 0.06
22563 H 47.38907214204124 111.10899065727861 54.63222214990344 H 0.0 **** 0.06
22564 H 47.552756044804994 112.43500045710951 53.45530099365283 H 0.0 **** 0.06
22565 H 49.00471255209351 111.6261010309932 54.092529948833544 H 0.0 **** 0.06
22566 C 33.83481838451216 41.51265522574735 17.71317129546054 C 0.0 **** -0.24
22567 H 33.24957882534608 42.05316487498723 18.45767409243166 H 0.0 **** 0.06
22568 H 33.550975408026716 41.847993583912995 16.71451927098937 H 0.0 **** 0.06
22569 H 33.643132908086045 40.443647136657574 17.80639564595316 H 0.0 **** 0.06
22570 H 34.89488491540007 41.70738017010589 17.873852658353627 H 0.0 **** 0.06
22571 C 9.315085560287457 40.32262836983233 95.22231873828053 C 0.0 **** -0.24
22572 H 10.325630689103946 40.718389126194324 95.32356277358622 H 0.0 **** 0.06
22573 H 8.828545045184796 40.31376697219588 96.19756290313944 H 0.0 **** 0.06
22574 H 9.360709292101717 39.306871256062266 94.82802897297228 H 0.0 **** 0.06
22575 H 8.745962090143564 40.95197088049025 94.53799653402501 H 0.0 **** 0.06
22576 C 81.88604346523118 107.96826875502506 106.20504097134142 C 0.0 **** -0.24
22577 H 82.63434915119672 107.66963537751485 106.93871055423276 H 0.0 **** 0.06
22578 H 80.88926490419269 107.84182722126172 106.62891417417258 H 0.0 **** 0.06
22579 H 81.98339565155814 107.34796891141093 105.31352535216018 H 0.0 **** 0.06
22580 H 82.03656706841323 109.01464693768582 105.93773443319503 H 0.0 **** 0.06
22581 C 10.251269328208593 31.103306378535237 93.99090419967007 C 0.0 **** -0.24
22582 H 10.52111272901169 30.152737354073928 93.53103090637902 H 0.0 **** 0.06
22583 H 10.000316944811516 31.82454270648214 93.21279785801974 H 0.0 **** 0.06
22584 H 11.094293565795965 31.476348825696626 94.5738981529945 H 0.0 **** 0.06
22585 H 9.391490240428084 30.96075659922292 94.64558723217763 H 0.0 **** 0.06
22586 C 10.30795894866904 40.2664763561051 14.290585666562961 C 0.0 **** -0.24
22587 H 11.05135548793676 40.36712776306957 13.499865574502067 H 0.0 **** 0.06
22588 H 9.498358853075487 39.622106785000284 13.948492247319948 H 0.0 **** 0.06
22589 H 9.909119954288741 41.24970459036469 14.540871713963327 H 0.0 **** 0.06
22590 H 10.773935762375856 39.82802226627785 15.17300280497004 H 0.0 **** 0.06
22591 C 22.353023624304512 29.358149126744763 72.98567013189509 C 0.0 **** -0.24
22592 H 21.89827248927274 30.15716469332429 73.56924599484637 H 0.0 **** 0.06
22593 H 22.852685553337786 28.656918948394576 73.6553108414451 H 0.0 **** 0.06
22594 H 23.081544505405162 29.782295806806815 72.2937659611876 H 0.0 **** 0.06
22595 H 21.579910760742724 28.834497470429383 72.42296429555054 H 0.0 **** 0.06
22596 C 45.89562547011556 101.65525415967605 112.16569525513478 C 0.0 **** -0.24
22597 H 46.94185115577767 101.83889617734081 111.92101011398373 H 0.0 **** 0.06
22598 H 45.83309524790647 100.91125864218415 112.96016492755714 H 0.0 **** 0.06
22599 H 45.37478799348864 101.28837217350562 111.28202889071683 H 0.0 **** 0.06
22600 H 45.43310660340089 102.5839621310734 112.50042381992031 H 0.0 **** 0.06
22601 C 50.45120400294513 67.12082599808434 101.13605565716335 C 0.0 **** -0.24
22602 H 50.68728611384847 67.9941274044879 101.74316290956153 H 0.0 **** 0.06
22603 H 51.11543639086972 67.09053407951572 100.27129775591217 H 0.0 **** 0.06
22604 H 49.41691150658397 67.18081292421081 100.79836208257919 H 0.0 **** 0.06
22605 H 50.58827715026939 66.21790872053205 101.73075617846703 H 0.0 **** 0.06
22606 C 36.6800286625369 108.71039811469387 73.33763084724387 C 0.0 **** -0.24
22607 H 36.660213758612855 109.25295269955708 72.39229159597647 H 0.0 **** 0.06
22608 H 36.914606419342505 107.66208529544548 73.14981720452022 H 0.0 **** 0.06
22609 H 35.70452915137767 108.78328081557359 73.81830453818998 H 0.0 **** 0.06
22610 H 37.439668709612846 109.14236662200511 73.98912267116907 H 0.0 **** 0.06
22611 C 77.23556895136139 40.35256630349738 35.31654891394249 C 0.0 **** -0.24
22612 H 77.84443491800087 40.19850785688095 36.20744544104367 H 0.0 **** 0.06
22613 H 77.206377217386 41.415400971000935 35.07590037822433 H 0.0 **** 0.06
22614 H 76.2235514256046 39.993608433369445 35.50239329626567 H 0.0 **** 0.06
22615 H 77.66868310563927 39.80211348906468 34.48039922004537 H 0.0 **** 0.06
22616 C 16.66161211305686 15.859256504255569 85.22410285921876 C 0.0 **** -0.24
22617 H 16.51487071541345 15.252979303337327 84.33029846156501 H 0.0 **** 0.06
22618 H 16.696143517073835 15.21257500762107 86.10110858206713 H 0.0 **** 0.06
22619 H 15.837464172003507 16.564582091881675 85.32391916548335 H 0.0 **** 0.06
22620 H 17.600908871337168 16.408197654077185 85.1402771612795 H 0.0 **** 0.06
22621 C 101.83572525903438 83.13536116858086 76.34085668795885 C 0.0 **** -0.24
22622 H 102.6971582390776 82.47683224677132 76.44930591526287 H 0.0 **** 0.06
22623 H 101.09742600009315 82.89653625318579 77.1071394832544 H 0.0 **** 0.06
22624 H 101.39431615543475 82.99663004508022 75.35417789465382 H 0.0 **** 0.06
22625 H 102.15488338892726 84.17136812663796 76.45326684764413 H 0.0 **** 0.06
22626 C 3.6257185743234714 41.15818698303218 82.1572515027078 C 0.0 **** -0.24
22627 H 2.645015747084969 41.1788592332133 82.63335554233228 H 0.0 **** 0.06
22628 H 4.297628803686578 40.52642447387498 82.73808207768838 H 0.0 **** 0.06
22629 H 4.027152650412887 42.17067153131009 82.11044197012896 H 0.0 **** 0.06
22630 H 3.5308459583491043 40.75774532272145 81.14746533459683 H 0.0 **** 0.06
22631 C 11.985805407137956 21.893577416347483 61.55476982231991 C 0.0 **** -0.24
22632 H 12.666084424249789 21.168130573108442 62.00164202194239 H 0.0 **** 0.06
22633 H 12.532414915869825 22.514432202559306 60.8449376103064 H 0.0 **** 0.06
22634 H 11.560837252125904 22.522966314435706 62.33652493657817 H 0.0 **** 0.06
22635 H 11.18466427305874 21.367717602109366 61.03546189342924 H 0.0 **** 0.06
22636 C 33.887787046806395 71.16674569327404 46.72705486792563 C 0.0 **** -0.24
22637 H 34.02022381661327 70.11275922960206 46.483642867540595 H 0.0 **** 0.06
22638 H 34.83567245023885 71.6907232730683 46.599551082660014 H 0.0 **** 0.06
22639 H 33.556784842916855 71.26242072932754 47.760921005021714 H 0.0 **** 0.06
22640 H 33.13982717461221 71.60144368732838 46.06423735735609 H 0.0 **** 0.06
22641 C 5.354317311167165 18.57370175397598 8.407896510499569 C 0.0 **** -0.24
22642 H 5.225454391103426 18.900556205303285 7.375700333105186 H 0.0 **** 0.06
22643 H 4.697831197329776 19.153248824812216 9.055994879117137 H 0.0 **** 0.06
22644 H 6.391430010490808 18.72526379854643 8.709443629157633 H 0.0 **** 0.06
22645 H 5.103284529985899 17.515848774125303 8.48753960895533 H 0.0 **** 0.06
22646 C 28.719201147262815 9.044479165979297 8.413724731020494 C 0.0 **** -0.24
22647 H 28.326151892294504 8.780953156034979 9.395722044386133 H 0.0 **** 0.06
22648 H 27.910391347239432 9.026449999904944 7.682507179787251 H 0.0 **** 0.06
22649 H 29.485888185158437 8.32631564660797 8.125644104315711 H 0.0 **** 0.06
22650 H 29.15400327927317 10.043790089068356 8.452328292880026 H 0.0 **** 0.06
22651 C 89.19009323775416 100.81257068552503 106.9686761762624 C 0.0 **** -0.24
22652 H 88.78975676389146 100.22356151414445 106.14348268630951 H 0.0 **** 0.06
22653 H 88.54111053874365 100.7056717538214 107.83896094126797 H 0.0 **** 0.06
22654 H 89.23558279624595 101.86184036997344 106.6757252216088 H 0.0 **** 0.06
22655 H 90.19081795327125 100.46053672820037 107.21527183257983 H 0.0 **** 0.06
22656 C 99.97784376841219 88.99322672726086 80.8277691056874 C 0.0 **** -0.24
22657 H 99.18340510164012 89.7231297361572 80.67336000262932 H 0.0 **** 0.06
22658 H 100.94562700697418 89.47694436619486 80.69550332232484 H 0.0 **** 0.06
22659 H 99.87403157120934 88.18462915484852 80.1033628279124 H 0.0 **** 0.06
22660 H 99.90788356970768 88.58824722227288 81.8364387540768 H 0.0 **** 0.06
22661 C 30.725627641757512 67.17485105649232 77.97422102936227 C 0.0 **** -0.24
22662 H 31.3207017030839 66.47204340183029 78.55618457987686 H 0.0 **** 0.06
22663 H 31.235705484735433 67.39255824904004 77.03495554072413 H 0.0 **** 0.06
22664 H 30.59693471234337 68.09776625243526 78.53996132083026 H 0.0 **** 0.06
22665 H 29.749769272912403 66.73803205907402 77.76362672571156 H 0.0 **** 0.06
22666 C 61.34868587115682 35.874484822872304 18.378983650794737 C 0.0 **** -0.24
22667 H 61.004926204976385 34.99790945301325 17.829463563201443 H 0.0 **** 0.06
22668 H 62.37617799235659 35.71595454064379 18.708230589615027 H 0.0 **** 0.06
22669 H 60.70825999300254 36.03470071596351 19.245928811991234 H 0.0 **** 0.06
22670 H 61.30559287874303 36.7488956273327 17.72888736254714 H 0.0 **** 0.06
22671 C 1.9753044097469683 102.30058135750522 94.62567376039505 C 0.0 **** -0.24
22672 H 3.008331378629819 102.05947558153076 94.87562706854186 H 0.0 **** 0.06
22673 H 1.926573127946881 102.67547190631905 93.60261275947238 H 0.0 **** 0.06
22674 H 1.6045063391908911 103.06412871928552 95.31082024843124 H 0.0 **** 0.06
22675 H 1.3613702685974687 101.40458733057062 94.71349702484008 H 0.0 **** 0.06
22676 C 66.27378831880429 91.29453426441222 25.59097065109502 C 0.0 **** -0.24
22677 H 65.3724984194489 91.85014731396947 25.852022575349608 H 0.0 **** 0.06
22678 H 66.07010475450983 90.22483512658144 25.647275143459893 H 0.0 **** 0.06
22679 H 67.07134401112162 91.54924807893084 26.288866901356343 H 0.0 **** 0.06
22680 H 66.58009200004722 91.55370479385226 24.577890181914 H 0.0 **** 0.06
22681 C 74.7162129714643 68.07273569001691 84.57568372915247 C 0.0 **** -0.24
22682 H 74.00363073551569 68.89617837414454 84.60674847738187 H 0.0 **** 0.06
22683 H 74.2276637086976 67.18413064585036 84.17607757762934 H 0.0 **** 0.06
22684 H 75.07889959387728 67.86717488822589 85.58325983628512 H 0.0 **** 0.06
22685 H 75.55693325757818 68.34436465683751 83.93660036473946 H 0.0 **** 0.06
22686 C 104.18518397056815 17.176017066617277 44.93242193817227 C 0.0 **** -0.24
22687 H 103.14279102070498 17.414967472948717 44.72305145828901 H 0.0 **** 0.06
22688 H 104.25122256242733 16.1687197437156 45.343244745863615 H 0.0 **** 0.06
22689 H 104.58297155310385 17.88917204861437 45.653665544025955 H 0.0 **** 0.06
22690 H 104.76294577309304 17.231776323130845 44.00955216234149 H 0.0 **** 0.06
22691 C 70.21329370041579 111.65356270122349 27.062449807963674 C 0.0 **** -0.24
22692 H 71.231800407414 112.03355034028844 26.977438508357807 H 0.0 **** 0.06
22693 H 69.96750674530577 111.50726759094789 28.11433854417629 H 0.0 **** 0.06
22694 H 70.13522892735665 110.7033403378925 26.535286954651582 H 0.0 **** 0.06
22695 H 69.52107465272243 112.3716507445377 26.623534433925613 H 0.0 **** 0.06
22696 C 108.27484047323765 79.70512008752823 3.107865053881909 C 0.0 **** -0.24
22697 H 107.34869252457764 79.48322250008204 2.5764444097817716 H 0.0 **** 0.06
22698 H 108.19826858965297 80.68647170792971 3.5772254660352303 H 0.0 **** 0.06
22699 H 109.10677657799036 79.70332108555903 2.403208043228176 H 0.0 **** 0.06
22700 H 108.445148117791 78.94807223394093 3.873397056384988 H 0.0 **** 0.06
22701 C 77.03297161561142 16.98583791403577 29.714354348831534 C 0.0 **** -0.24
22702 H 76.68327608296948 15.95442289114682 29.760932073183284 H 0.0 **** 0.06
22703 H 77.89279108016794 17.04770778011887 29.04684852070693 H 0.0 **** 0.06
22704 H 77.3223617077465 17.3162258338933 30.71210712598821 H 0.0 **** 0.06
22705 H 76.23304334341387 17.622813268225542 29.337268773705745 H 0.0 **** 0.06
22706 C 54.145577163814835 72.15799984015717 33.15393042374052 C 0.0 **** -0.24
22707 H 53.12343476844944 72.41381710736908 33.43147463760101 H 0.0 **** 0.06
22708 H 54.80385883189189 72.31717392717525 34.00791943865289 H 0.0 **** 0.06
22709 H 54.46547212392625 72.78848686156908 32.32403479973743 H 0.0 **** 0.06
22710 H 54.188258597575924 71.11074586035073 32.85184784577126 H 0.0 **** 0.06
22711 C 94.78871826720768 28.159054864767768 57.195280087462265 C 0.0 **** -0.24
22712 H 94.75743141715233 27.514638622644497 56.31661619217246 H 0.0 **** 0.06
22713 H 95.26694623795376 29.10405990612429 56.936519767809074 H 0.0 **** 0.06
22714 H 95.35695440489582 27.667249017384734 57.985401055489376 H 0.0 **** 0.06
22715 H 93.7730850720493 28.34896735153839 57.54228274377931 H 0.0 **** 0.06
22716 C 63.147082311747454 52.1120048129695 106.24887822834157 C 0.0 **** -0.24
22717 H 63.25737498670418 53.186636930797675 106.10667528586208 H 0.0 **** 0.06
22718 H 63.91863204868986 51.755400138074464 106.93119083522986 H 0.0 **** 0.06
22719 H 63.2478812191045 51.60608893467281 105.28883756446052 H 0.0 **** 0.06
22720 H 62.163215026645275 51.90035398785207 106.6693429321204 H 0.0 **** 0.06
22721 C 41.328202507887966 19.214150766124348 24.146846179070934 C 0.0 **** -0.24
22722 H 42.00598146861449 20.067895355464998 24.15311177298682 H 0.0 **** 0.06
22723 H 40.785597453723994 19.17366076833565 25.091357009216495 H 0.0 **** 0.06
22724 H 41.901218344204096 18.295948753771185 24.01684110528805 H 0.0 **** 0.06
22725 H 40.62016727867268 19.32014441702583 23.325135871097615 H 0.0 **** 0.06
22726 C 108.9613239871223 88.19438219284706 77.36634845396287 C 0.0 **** -0.24
22727 H 107.90270809904408 87.99608168111962 77.53260930819476 H 0.0 **** 0.06
22728 H 109.4151580743202 87.34311956635202 76.8588369208845 H 0.0 **** 0.06
22729 H 109.45635127697898 88.35439195319091 78.3240379823691 H 0.0 **** 0.06
22730 H 109.07028849821364 89.08619280395231 76.74740331652 H 0.0 **** 0.06
22731 C 21.2883899164574 16.944960934935583 88.76762896113189 C 0.0 **** -0.24
22732 H 21.067407882963856 17.34383073967681 89.75690097812861 H 0.0 **** 0.06
22733 H 21.508126586009737 15.880022898046963 88.84620496769463 H 0.0 **** 0.06
22734 H 22.15282354400607 17.464133375415816 88.35165303897577 H 0.0 **** 0.06
22735 H 20.427594143815607 17.091840204515744 88.11523145098965 H 0.0 **** 0.06
22736 C 48.19930740927049 28.79525696428317 71.28570633334573 C 0.0 **** -0.24
22737 H 48.75833002542237 27.869224470077995 71.1495632066464 H 0.0 **** 0.06
22738 H 47.865448841051204 28.86964565273169 72.32054117835605 H 0.0 **** 0.06
22739 H 47.334430173262774 28.79829103727178 70.6236742729655 H 0.0 **** 0.06
22740 H 48.841004392309 29.644885978951976 71.04888572334414 H 0.0 **** 0.06
22741 C 2.0850820116673106 53.58058436784563 50.04409309593515 C 0.0 **** -0.24
22742 H 2.236776613161979 53.23253754544629 51.06522603367634 H 0.0 **** 0.06
22743 H 1.5456731634587868 52.82154537013872 49.4773106880772 H 0.0 **** 0.06
22744 H 3.0520220957491517 53.764950408202424 49.57625293981382 H 0.0 **** 0.06
22745 H 1.505599246023266 54.50451626985608 50.05690091506485 H 0.0 **** 0.06
22746 C 36.69545024939343 67.71240985898109 57.824809405272276 C 0.0 **** -0.24
22747 H 36.74127406642998 67.97089596789812 56.76648405451644 H 0.0 **** 0.06
22748 H 37.28174533700634 66.81088175272617 58.004716538604555 H 0.0 **** 0.06
22749 H 35.658319287733235 67.53521009523428 58.1112444896292 H 0.0 **** 0.06
22750 H 37.10007456338363 68.53356700910857 58.416901050893216 H 0.0 **** 0.06
22751 C 90.33937695180614 112.42687516936122 16.92724385006862 C 0.0 **** -0.24
22752 H 90.44154527279258 112.89302106986183 17.907290803095876 H 0.0 **** 0.06
22753 H 89.35531657576229 111.96666187574908 16.84371399752081 H 0.0 **** 0.06
22754 H 91.10852079311547 111.66380089884979 16.807494927137483 H 0.0 **** 0.06
22755 H 90.45524547979093 113.18410146769935 16.151596877224804 H 0.0 **** 0.06
22756 C 103.4999630046002 109.10476101675135 58.365294440216864 C 0.0 **** -0.24
22757 H 103.12758259180782 109.42010179198265 59.34013875180461 H 0.0 **** 0.06
22758 H 102.68382931013838 109.12272804233068 57.64256945520329 H 0.0 **** 0.06
22759 H 103.89819617599616 108.09275897183824 58.4396758997291 H 0.0 **** 0.06
22760 H 104.28872679297083 109.78348577466906 58.040716587501684 H 0.0 **** 0.06
22761 C 62.378259899661934 82.31765959032327 109.21868809108928 C 0.0 **** -0.24
22762 H 62.06601468728474 83.32826801770298 109.48089963545875 H 0.0 **** 0.06
22763 H 63.401693201356885 82.15513794901551 109.55768723487213 H 0.0 **** 0.06
22764 H 62.32903218653848 82.1912198120497 108.13736853634649 H 0.0 **** 0.06
22765 H 61.71595218850188 81.59695035379679 109.69879652547056 H 0.0 **** 0.06
22766 C 73.48417477931292 33.69677244678377 27.313084339924032 C 0.0 **** -0.24
22767 H 74.13452314875843 34.015066777238474 26.498835569719795 H 0.0 **** 0.06
22768 H 74.07906206238854 33.20258728886313 28.081393885118565 H 0.0 **** 0.06
22769 H 72.73569629088507 33.00326752398604 26.929991329938545 H 0.0 **** 0.06
22770 H 72.98673194591154 34.56739630176003 27.74196916439727 H 0.0 **** 0.06
22771 C 0.15176316651910327 30.038037843506785 87.62260522551679 C 0.0 **** -0.24
22772 H 0.8845421649331939 29.421893485300103 88.14225643149311 H 0.0 **** 0.06
22773 H -0.6888276407358234 29.41758492759152 87.30943793771758 H 0.0 **** 0.06
22774 H 0.6144295291767321 30.491155972766606 86.74604138473649 H 0.0 **** 0.06
22775 H -0.20368877209040193 30.821849986822798 88.2919555590828 H 0.0 **** 0.06
22776 C 58.673195202666875 112.19921521561787 21.99593502455008 C 0.0 **** -0.24
22777 H 59.32885313890017 111.75806942520731 21.24470170908147 H 0.0 **** 0.06
22778 H 58.99227989113868 111.88017064661958 22.988034263955683 H 0.0 **** 0.06
22779 H 57.648016764781914 111.87268695089287 21.820216856953024 H 0.0 **** 0.06
22780 H 58.72444443042198 113.286174007488 21.928975941878136 H 0.0 **** 0.06
22781 C 97.77277405127614 76.26618800523181 52.545965511122205 C 0.0 **** -0.24
22782 H 98.75918134384798 76.06249968340052 52.962017288182956 H 0.0 **** 0.06
22783 H 97.40161433475058 75.37456440817522 52.03927596692025 H 0.0 **** 0.06
22784 H 97.84093817417067 77.08771667527446 51.83429383898163 H 0.0 **** 0.06
22785 H 97.08951940634455 76.53776694208346 53.35030395340708 H 0.0 **** 0.06
22786 C 64.5433457597803 36.07288926156326 87.39442593373354 C 0.0 **** -0.24
22787 H 64.46163504376239 34.98840746157248 87.47077383915399 H 0.0 **** 0.06
22788 H 65.22162693688767 36.328455361851184 86.5800648166533 H 0.0 **** 0.06
22789 H 64.93001824953046 36.474766456984355 88.3298848488302 H 0.0 **** 0.06
22790 H 63.55938328361513 36.49784250511084 87.19450341885084 H 0.0 **** 0.06
22791 C 77.961342160719 40.65583682840442 39.132318611435245 C 0.0 **** -0.24
22792 H 78.74186559193328 40.35954505383315 39.833704236662776 H 0.0 **** 0.06
22793 H 77.08444297634423 40.99282194982933 39.68568582538457 H 0.0 **** 0.06
22794 H 77.69283470289852 39.80281390313235 38.507786691384894 H 0.0 **** 0.06
22795 H 78.32765861161386 41.46553244747241 38.50219038536887 H 0.0 **** 0.06
22796 C 90.78889471634804 82.06812149584297 28.599112505157194 C 0.0 **** -0.24
22797 H 90.31447943362144 82.35282882441282 29.53759969062901 H 0.0 **** 0.06
22798 H 90.26059493103546 81.21733861126654 28.168636933571662 H 0.0 **** 0.06
22799 H 91.82722166797794 81.79490715331735 28.785626374032688 H 0.0 **** 0.06
22800 H 90.75328283275724 82.90741139437517 27.90458702239536 H 0.0 **** 0.06
22801 C 107.68211863669401 24.956329615562606 94.29804261583268 C 0.0 **** -0.24
22802 H 108.58587066171435 25.53700939069121 94.48349794682244 H 0.0 **** 0.06
22803 H 107.93663103914241 23.89811878315356 94.24181414627441 H 0.0 **** 0.06
22804 H 107.23480887487761 25.273911160660397 93.35584021603182 H 0.0 **** 0.06
22805 H 106.97346192717265 25.118136335940438 95.1098908820183 H 0.0 **** 0.06
22806 C 26.409601437016136 44.0348832843525 78.97430751589005 C 0.0 **** -0.24
22807 H 26.60364291495125 43.916235957849324 77.90761440663866 H 0.0 **** 0.06
22808 H 25.677763367882903 43.29353616615204 79.29466803812528 H 0.0 **** 0.06
22809 H 26.01982301997583 45.03528414733272 79.16275192807166 H 0.0 **** 0.06
22810 H 27.336614157476163 43.89465705665103 79.53003892290448 H 0.0 **** 0.06
22811 C 110.43984486695206 53.784575597746844 81.82624051804876 C 0.0 **** -0.24
22812 H 111.30053475310112 53.26444669971358 81.4063402767622 H 0.0 **** 0.06
22813 H 110.58586855328794 54.86041921863971 81.73412142302186 H 0.0 **** 0.06
22814 H 110.33539740351313 53.519945789117756 82.87916466807008 H 0.0 **** 0.06
22815 H 109.53963346236957 53.491824276563186 81.28675054989617 H 0.0 **** 0.06
22816 C 99.234568838777 65.84395766916768 74.06317155474912 C 0.0 **** -0.24
22817 H 98.52557012156979 66.66794087857812 73.9834980202431 H 0.0 **** 0.06
22818 H 100.24066153636028 66.20915002512942 73.85570481846804 H 0.0 **** 0.06
22819 H 98.97408983076491 65.06977928949914 73.34132259416634 H 0.0 **** 0.06
22820 H 99.19779404912668 65.42910292662398 75.06993492628541 H 0.0 **** 0.06
22821 C 86.6561256012285 11.627122225799909 22.4850316838764 C 0.0 **** -0.24
22822 H 85.72521662829828 11.09621349306883 22.68108454075235 H 0.0 **** 0.06
22823 H 86.64450558296122 12.017809415838471 21.46784986812571 H 0.0 **** 0.06
22824 H 87.49593169763901 10.943067858497699 22.60337306315398 H 0.0 **** 0.06
22825 H 86.75849986992702 12.451798206529574 23.190772044157995 H 0.0 **** 0.06
22826 C 47.989487005413935 1.945458668164573 86.1267028880923 C 0.0 **** -0.24
22827 H 47.47595879875098 2.2365888206092492 85.20962847240935 H 0.0 **** 0.06
22828 H 48.60707881474849 2.772750702105439 86.47576106803481 H 0.0 **** 0.06
22829 H 48.61975797371986 1.0780524693887665 85.92921007065817 H 0.0 **** 0.06
22830 H 47.25273626778704 1.693319805929864 86.88958475923428 H 0.0 **** 0.06
22831 C 29.38462165607291 70.56676010340237 67.52614136982422 C 0.0 **** -0.24
22832 H 28.364752832373313 70.91351015755237 67.3592001234313 H 0.0 **** 0.06
22833 H 30.087351921910425 71.29104031053083 67.113631040715 H 0.0 **** 0.06
22834 H 29.524423560874624 69.60305376547663 67.03598431793495 H 0.0 **** 0.06
22835 H 29.56015149991528 70.4583636247554 68.59651507839362 H 0.0 **** 0.06
22836 C 46.087025891578776 15.378433815732564 106.01372346642174 C 0.0 **** -0.24
22837 H 45.11245954696767 14.89123528611566 106.04450368166269 H 0.0 **** 0.06
22838 H 46.78222412832508 14.762974733176293 105.44126559441344 H 0.0 **** 0.06
22839 H 46.46228563195581 15.501668153326364 107.02972436414589 H 0.0 **** 0.06
22840 H 45.99027242533765 16.354985089141778 105.53949698504502 H 0.0 **** 0.06
22841 C 78.88612079969116 100.45194267682325 8.206816989752921 C 0.0 **** -0.24
22842 H 78.85945141233202 100.36494472956579 7.120300294010642 H 0.0 **** 0.06
22843 H 79.70358983447503 99.846597854387 8.599110808987868 H 0.0 **** 0.06
22844 H 77.9420262488897 100.10029519144805 8.622713498133821 H 0.0 **** 0.06
22845 H 79.03998549919902 101.4946548265884 8.484122598665925 H 0.0 **** 0.06
22846 C 39.98668833012522 42.86376450619855 48.86911945769672 C 0.0 **** -0.24
22847 H 40.42675270251186 41.976861239044325 48.41226676624491 H 0.0 **** 0.06
22848 H 39.01909994145126 42.607402276020906 49.30128671886263 H 0.0 **** 0.06
22849 H 39.85432030057581 43.63528573304916 48.11100927002526 H 0.0 **** 0.06
22850 H 40.64847008056881 43.23408683549064 49.652553385998516 H 0.0 **** 0.06
22851 C 21.84546583255556 58.25988870008104 89.04020702020085 C 0.0 **** -0.24
22852 H 22.598601374064486 58.35659902553639 89.8226253195649 H 0.0 **** 0.06
22853 H 21.67070090726557 57.20379981353165 88.83360135760262 H 0.0 **** 0.06
22854 H 22.196293669028876 58.75457553736529 88.13475181651015 H 0.0 **** 0.06
22855 H 20.917132399989626 58.724277818370304 89.37188930615005 H 0.0 **** 0.06
22856 C 20.819918885728953 65.36831362308538 38.9669939798792 C 0.0 **** -0.24
22857 H 20.585337770141706 65.15309746285135 40.00988953740809 H 0.0 **** 0.06
22858 H 19.89479187711757 65.45302789379474 38.397330158989455 H 0.0 **** 0.06
22859 H 21.426349645591955 64.56003463202461 38.558098876931815 H 0.0 **** 0.06
22860 H 21.374134828912645 66.30524128301892 38.90560444312714 H 0.0 **** 0.06
22861 C 25.792018713476466 33.46651367761311 65.67293508758613 C 0.0 **** -0.24
22862 H 26.04166651285169 32.68026059435033 66.3854190928827 H 0.0 **** 0.06
22863 H 26.54213826071711 34.256486417532784 65.72667716664472 H 0.0 **** 0.06
22864 H 24.81157225777676 33.87813757860914 65.9140469774232 H 0.0 **** 0.06
22865 H 25.77354343752026 33.05063853471577 64.66564619690047 H 0.0 **** 0.06
22866 C 38.35476570617334 109.35763856176224 12.027229993474748 C 0.0 **** -0.24
22867 H 37.596605733637176 108.57453822441147 11.990259977422227 H 0.0 **** 0.06
22868 H 37.91018979575689 110.27578825524195 12.411833446731265 H 0.0 **** 0.06
22869 H 38.74369692803488 109.53315043757696 11.023793137312396 H 0.0 **** 0.06
22870 H 39.16774986147996 109.04489603856162 12.682279039148 H 0.0 **** 0.06
22871 C 107.37205773440277 64.2616883689472 102.04483278530387 C 0.0 **** -0.24
22872 H 107.22710874772875 63.80459179577895 101.06594622017636 H 0.0 **** 0.06
22873 H 107.43853656573512 65.34417337732538 101.93421551781634 H 0.0 **** 0.06
22874 H 108.29369299696313 63.88361194185467 102.48850395846148 H 0.0 **** 0.06
22875 H 106.53012670277401 64.01324900643652 102.69021124251387 H 0.0 **** 0.06
22876 C 6.95707764357681 51.87116613009567 58.482255555371445 C 0.0 **** -0.24
22877 H 7.6892082122908505 52.49367163586817 57.96776345378547 H 0.0 **** 0.06
22878 H 5.980042965293563 52.353428802843325 58.44221332902119 H 0.0 **** 0.06
22879 H 7.256288890604623 51.741896964126965 59.52188358654373 H 0.0 **** 0.06
22880 H 6.902382501932038 50.897674473230154 57.99496629152025 H 0.0 **** 0.06
22881 C 6.368100450241812 45.136718880971046 87.45987339119876 C 0.0 **** -0.24
22882 H 6.955505677901925 44.427260399073646 86.87739495774574 H 0.0 **** 0.06
22883 H 6.917886753933118 46.07274950696723 87.55526230033288 H 0.0 **** 0.06
22884 H 6.178146239537853 44.72322257796543 88.45054317312946 H 0.0 **** 0.06
22885 H 5.418613266482112 45.32274079246514 86.9559404213459 H 0.0 **** 0.06
22886 C 75.5762000784791 93.09122203348488 69.03215543562607 C 0.0 **** -0.24
22887 H 75.7873767006362 92.07071915088096 68.71381183401405 H 0.0 **** 0.06
22888 H 75.67805929472087 93.76531238061523 68.18212293638484 H 0.0 **** 0.06
22889 H 76.27943895647815 93.38063338734577 69.81350591953102 H 0.0 **** 0.06
22890 H 74.55856738010664 93.14701694259224 69.42048530531775 H 0.0 **** 0.06
22891 C 48.234706440139206 59.57305751135609 8.127964814638373 C 0.0 **** -0.24
22892 H 47.17068788189832 59.42024233539001 7.945280763708434 H 0.0 **** 0.06
22893 H 48.49855085579435 60.604438119616496 7.893184967914355 H 0.0 **** 0.06
22894 H 48.81187979774822 58.89672373753293 7.497637980308397 H 0.0 **** 0.06
22895 H 48.45630745527538 59.370716700863234 9.175585712358373 H 0.0 **** 0.06
22896 C 38.89703816796384 37.6113406849032 73.09466239762577 C 0.0 **** -0.24
22897 H 38.45958835963494 38.323330277205145 73.79444369825265 H 0.0 **** 0.06
22898 H 39.77825652309158 38.05454283745702 72.62912986110572 H 0.0 **** 0.06
22899 H 38.16682199819175 37.362442396002436 72.32478554769233 H 0.0 **** 0.06
22900 H 39.18451416160704 36.70671473603197 73.62921244935782 H 0.0 **** 0.06
22901 C 14.349929408014688 94.06172167723639 34.87919537273348 C 0.0 **** -0.24
22902 H 15.043296421498212 94.79178714769063 35.295578523102165 H 0.0 **** 0.06
22903 H 13.560527278215133 94.57970889481177 34.33386432452943 H 0.0 **** 0.06
22904 H 13.910215861363028 93.47643005389205 35.68649895674719 H 0.0 **** 0.06
22905 H 14.886148240878072 93.39841545277184 34.20014556998848 H 0.0 **** 0.06
22906 C 11.51315815497361 20.2367110328739 32.99239605613806 C 0.0 **** -0.24
22907 H 11.909932921264726 21.153057445042975 32.55537497223412 H 0.0 **** 0.06
22908 H 11.145917920253908 20.44267032203811 33.997685944177704 H 0.0 **** 0.06
22909 H 12.301141711323709 19.485873910017403 33.03899914953655 H 0.0 **** 0.06
22910 H 10.694592563133057 19.865479848106133 32.375562867349316 H 0.0 **** 0.06
22911 C 46.070486919756014 25.205423526483003 70.71533244881871 C 0.0 **** -0.24
22912 H 45.435800580094096 24.787249033582953 69.93362932708504 H 0.0 **** 0.06
22913 H 46.95639115344693 24.581754353694464 70.8353443084142 H 0.0 **** 0.06
22914 H 45.51789400969037 25.238170326622622 71.65417327579542 H 0.0 **** 0.06
22915 H 46.372095123680964 26.215739649400888 70.43632295965512 H 0.0 **** 0.06
22916 C 78.04672950926721 19.763842180511205 31.841871754103536 C 0.0 **** -0.24
22917 H 78.71461900904944 18.955972656758064 31.541751981317333 H 0.0 **** 0.06
22918 H 77.01277023817761 19.431152506810434 31.75661839537196 H 0.0 **** 0.06
22919 H 78.20717291285143 20.625726587981802 31.19488912728491 H 0.0 **** 0.06
22920 H 78.25549233061264 20.041384384507808 32.875165909126935 H 0.0 **** 0.06
22921 C 58.09113013676835 101.76086869007966 103.66846015089746 C 0.0 **** -0.24
22922 H 57.78844498487191 102.40156904277262 104.4968182602648 H 0.0 **** 0.06
22923 H 57.73366478940485 102.18726614438816 102.73095273782081 H 0.0 **** 0.06
22924 H 57.66242179622537 100.76781229482808 103.80266721632555 H 0.0 **** 0.06
22925 H 59.17737315120281 101.68773044127863 103.64456095071932 H 0.0 **** 0.06
22926 C 72.94143695332056 15.092406592998628 26.441146488518754 C 0.0 **** -0.24
22927 H 73.81001549728848 14.65427592693251 25.949842913273756 H 0.0 **** 0.06
22928 H 72.4873715935588 14.354048660967326 27.102286127988094 H 0.0 **** 0.06
22929 H 72.21610400540874 15.402407453481175 25.688794856132006 H 0.0 **** 0.06
22930 H 73.25420733466882 15.95868026935705 27.02404870314163 H 0.0 **** 0.06
22931 C 94.85278921415954 70.23517856823466 80.45353667473034 C 0.0 **** -0.24
22932 H 95.28156306028049 69.25744956840109 80.67123446962566 H 0.0 **** 0.06
22933 H 95.54777585207705 71.0146581096113 80.76682511020971 H 0.0 **** 0.06
22934 H 93.91279768433085 70.3478734001265 80.99438899125374 H 0.0 **** 0.06
22935 H 94.66866547851396 70.32209996192503 79.3827012469325 H 0.0 **** 0.06
22936 C 30.80642310900521 30.90103913702778 29.505374985081644 C 0.0 **** -0.24
22937 H 30.508063407688383 30.223108742766485 28.70629538700109 H 0.0 **** 0.06
22938 H 31.884986316591608 31.05792372439035 29.4655114367511 H 0.0 **** 0.06
22939 H 30.536807374644013 30.466726879028926 30.46898782656116 H 0.0 **** 0.06
22940 H 30.295069028554224 31.85542196916269 29.38227434041731 H 0.0 **** 0.06
22941 C 103.42608641160001 107.11013272310512 51.28535008252595 C 0.0 **** -0.24
22942 H 102.80790006789752 107.9935874666376 51.44618158938931 H 0.0 **** 0.06
22943 H 103.5886780936329 106.9708322152481 50.21688545206092 H 0.0 **** 0.06
22944 H 102.92175387373294 106.23478233251114 51.693793145465406 H 0.0 **** 0.06
22945 H 104.38656849890955 107.2431540550263 51.785141022013704 H 0.0 **** 0.06
22946 C 0.6876407261986515 1.1672745256563246 76.19241130172799 C 0.0 **** -0.24
22947 H 1.4119558431779495 1.9201095363246878 75.88157301149329 H 0.0 **** 0.06
22948 H 0.8936900061128341 0.8669417342062644 77.21938270069973 H 0.0 **** 0.06
22949 H 0.7630090919656425 0.298354766197491 75.53746203717668 H 0.0 **** 0.06
22950 H -0.31736731885108327 1.5835221711844412 76.12937107744472 H 0.0 **** 0.06
22951 C 30.852079686430734 56.76950898556921 111.43574556970549 C 0.0 **** -0.24
22952 H 31.93923234360758 56.833196531646784 111.48974955010277 H 0.0 **** 0.06
22953 H 30.526909880868693 56.97054905367596 110.41454337153829 H 0.0 **** 0.06
22954 H 30.41166722667011 57.50335853294436 112.10991916363088 H 0.0 **** 0.06
22955 H 30.532818893186437 55.76930426508062 111.72863881629496 H 0.0 **** 0.06
22956 C 26.477427629131682 99.03100247637414 71.4850094831452 C 0.0 **** -0.24
22957 H 25.87049400924255 99.87012187075214 71.8248206141071 H 0.0 **** 0.06
22958 H 26.918386867904502 99.27068973501062 70.51759367819167 H 0.0 **** 0.06
22959 H 25.84952589906402 98.14495856929977 71.3893432738898 H 0.0 **** 0.06
22960 H 27.269311736385816 98.83966473972632 72.20824025156554 H 0.0 **** 0.06
22961 C 63.530295673375925 73.61659818513573 103.93394125819 C 0.0 **** -0.24
22962 H 63.966454709909065 73.81448115559397 104.91290448283573 H 0.0 **** 0.06
22963 H 64.26784378540162 73.12444843170994 103.2994274035621 H 0.0 **** 0.06
22964 H 63.22586633774758 74.55747853354882 103.4751446172773 H 0.0 **** 0.06
22965 H 62.65876741778927 72.9709350480561 104.0481081569269 H 0.0 **** 0.06
22966 C 13.563686688341107 95.73579617659394 91.67371279713328 C 0.0 **** -0.24
22967 H 12.78940039041862 96.46549318914006 91.91225300851386 H 0.0 **** 0.06
22968 H 13.285362905138868 95.19213448635603 90.77007276218 H 0.0 **** 0.06
22969 H 13.669479088859703 95.03539998448852 92.50198902760397 H 0.0 **** 0.06
22970 H 14.50961377639564 96.25154895542957 91.51105562458261 H 0.0 **** 0.06
22971 C 110.03846419262203 35.41833693084851 11.799754524159468 C 0.0 **** -0.24
22972 H 109.14994429443077 35.509847655157444 12.423463187526966 H 0.0 **** 0.06
22973 H 110.36671371649612 36.40939127555015 11.48659654475961 H 0.0 **** 0.06
22974 H 109.80397474503967 34.81711338887936 10.920732681546973 H 0.0 **** 0.06
22975 H 110.83316039930631 34.93456113912379 12.367959884199529 H 0.0 **** 0.06
22976 C 52.06845934205387 23.282891043201438 36.23834478662235 C 0.0 **** -0.24
22977 H 51.32522304459752 22.59684939112571 35.8321711250274 H 0.0 **** 0.06
22978 H 51.65810579686354 24.29316439206529 36.258224272243865 H 0.0 **** 0.06
22979 H 52.95977664059018 23.26445710413627 35.611367880616 H 0.0 **** 0.06
22980 H 52.329908566908045 22.977205368978513 37.251059416075236 H 0.0 **** 0.06
22981 C 107.5133447644468 17.912154200047155 82.48964017730134 C 0.0 **** -0.24
22982 H 107.44931480688194 18.704487043444658 81.74285352543882 H 0.0 **** 0.06
22983 H 108.1643947102761 18.231894680536186 83.30337010277142 H 0.0 **** 0.06
22984 H 107.92244862161792 17.01262861138619 82.0284198358004 H 0.0 **** 0.06
22985 H 106.51813421072268 17.699739700925107 82.88073153171848 H 0.0 **** 0.06
22986 C 102.15353973489198 97.82254681370051 34.824847116959205 C 0.0 **** -0.24
22987 H 102.30425717388653 98.90125786945907 34.861166202010835 H 0.0 **** 0.06
22988 H 102.98709889239095 97.35678479801891 34.299263385083485 H 0.0 **** 0.06
22989 H 101.22301233349614 97.6031798838691 34.29908440713543 H 0.0 **** 0.06
22990 H 102.09812382332007 97.4288917189283 35.840340198444515 H 0.0 **** 0.06
22991 C 3.7674249532797006 69.5322083014602 7.061621010435147 C 0.0 **** -0.24
22992 H 3.30837375922556 69.36741318935154 6.08744910899739 H 0.0 **** 0.06
22993 H 3.115637277534546 70.16057464067941 7.669243428622707 H 0.0 **** 0.06
22994 H 4.730285891048879 70.0254552080082 6.930614665455266 H 0.0 **** 0.06
22995 H 3.9155970385216534 68.57299712559634 7.559662630673401 H 0.0 **** 0.06
22996 C 61.27631111698343 45.27388845116599 92.35165099726748 C 0.0 **** -0.24
22997 H 60.568557674040186 44.91788031554231 93.09961129319788 H 0.0 **** 0.06
22998 H 60.76899553198569 45.95128405824775 91.66501903220302 H 0.0 **** 0.06
22999 H 61.675883327887 44.424770437845574 91.79668336902569 H 0.0 **** 0.06
23000 H 62.092622574397005 45.800689720228505 92.84650395987416 H 0.0 **** 0.06
23001 C 42.884085052129535 75.37556774101415 4.903792826557096 C 0.0 **** -0.24
23002 H 43.223870740047744 76.22071056034736 5.503846812776429 H 0.0 **** 0.06
23003 H 42.01812234948255 75.67560817919116 4.312691488678487 H 0.0 **** 0.06
23004 H 42.608964150796794 74.55146478119946 5.561657678787643 H 0.0 **** 0.06
23005 H 43.68621272717013 75.05749129292235 4.237512871175795 H 0.0 **** 0.06
23006 C 59.272389536989984 37.505643736974434 34.72419869090245 C 0.0 **** -0.24
23007 H 60.28868490594764 37.13422530564867 34.855589177032044 H 0.0 **** 0.06
23008 H 58.63394320919077 37.103647704588155 35.51022846571155 H 0.0 **** 0.06
23009 H 58.89447767265363 37.19102929273282 33.7511150370598 H 0.0 **** 0.06
23010 H 59.274518028628584 38.59420600033067 34.77775280517701 H 0.0 **** 0.06
23011 C 59.28778731881488 62.07362260858912 35.29938242054658 C 0.0 **** -0.24
23012 H 58.23569768563874 61.933864950052055 35.54850410190693 H 0.0 **** 0.06
23013 H 59.592481669738305 63.08637355819491 35.565204384512185 H 0.0 **** 0.06
23014 H 59.43204044692564 61.918746586602424 34.23039326706271 H 0.0 **** 0.06
23015 H 59.8903947984559 61.35537188951628 35.855595092264764 H 0.0 **** 0.06
23016 C 73.95065991291258 65.03169172295725 8.768169731978574 C 0.0 **** -0.24
23017 H 74.18221221948474 63.9975647933098 9.024338512039634 H 0.0 **** 0.06
23018 H 74.87482936040698 65.60620392949045 8.708554933868399 H 0.0 **** 0.06
23019 H 73.30537046692925 65.45947110388903 9.535062611540596 H 0.0 **** 0.06
23020 H 73.44010659584686 65.06126708923111 7.805659996956294 H 0.0 **** 0.06
23021 C 28.528732366629058 36.48750408015502 43.71895241514608 C 0.0 **** -0.24
23022 H 28.0846932120349 35.56660355064275 43.34014260934964 H 0.0 **** 0.06
23023 H 29.29952298303722 36.83045038956453 43.028391720715604 H 0.0 **** 0.06
23024 H 28.971919392607894 36.301516661850656 44.69710286977755 H 0.0 **** 0.06
23025 H 27.756166201752627 37.2524276066776 43.80980960724122 H 0.0 **** 0.06
23026 C 56.42586900586606 84.3796648880001 43.55520503940747 C 0.0 **** -0.24
23027 H 56.79425982282411 84.01364035422537 44.51333165582963 H 0.0 **** 0.06
23028 H 55.43387374923778 84.8128053795096 43.68869733726817 H 0.0 **** 0.06
23029 H 56.369729150507816 83.55187628507187 42.84790399540162 H 0.0 **** 0.06
23030 H 57.105613300894255 85.14033753319325 43.17088716913045 H 0.0 **** 0.06
23031 C 82.48647466585149 39.028246833661484 47.712479548635116 C 0.0 **** -0.24
23032 H 83.19771214098986 38.386656924477705 48.23270068762369 H 0.0 **** 0.06
23033 H 82.434834372398 39.99484785191379 48.212571623261425 H 0.0 **** 0.06
23034 H 81.50139799617054 38.56090064418632 47.72267408353349 H 0.0 **** 0.06
23035 H 82.81011478212261 39.168343367139414 46.6811932567272 H 0.0 **** 0.06
23036 C 31.143347512437003 0.6901480811430911 8.976648333014253 C 0.0 **** -0.24
23037 H 30.41082645613261 1.3498826946536262 8.513472952467367 H 0.0 **** 0.06
23038 H 32.13216974557969 1.1431152582384216 8.912744837653918 H 0.0 **** 0.06
23039 H 31.148520782639764 -0.2692193013110833 8.457067750770449 H 0.0 **** 0.06
23040 H 30.880417801231033 0.5338373791085109 10.023151250775896 H 0.0 **** 0.06
23041 C 86.44958968204568 80.40094153187917 26.11697596173792 C 0.0 **** -0.24
23042 H 85.86569244330784 81.05862800800102 25.473435849001277 H 0.0 **** 0.06
23043 H 87.01288367813032 79.69868189876524 25.501921729417603 H 0.0 **** 0.06
23044 H 85.77887269292506 79.84993350887973 26.77580616462248 H 0.0 **** 0.06
23045 H 87.13922194666574 80.99558119248215 26.71561556322831 H 0.0 **** 0.06
23046 C 34.071251339448594 103.9385205166576 41.837402372498886 C 0.0 **** -0.24
23047 H 33.122573699363045 103.44708869222441 41.62264236862124 H 0.0 **** 0.06
23048 H 34.53165603764447 103.47441516521485 42.70964094649611 H 0.0 **** 0.06
23049 H 33.89387829381067 104.99504744227457 42.038842334708946 H 0.0 **** 0.06
23050 H 34.734929113846505 103.83898812070316 40.9785348044621 H 0.0 **** 0.06
23051 C 96.90359957962883 15.23193105380858 82.64254881678704 C 0.0 **** -0.24
23052 H 96.92429202609779 16.168469751015266 82.08533029894755 H 0.0 **** 0.06
23053 H 95.88954521232364 14.829755574676653 82.63892595551346 H 0.0 **** 0.06
23054 H 97.21826649188029 15.414560404218207 83.66965767182609 H 0.0 **** 0.06
23055 H 97.58064890666105 14.517229801313192 82.17607626269302 H 0.0 **** 0.06
23056 C 53.94912937296786 99.58641793992129 24.973745615018274 C 0.0 **** -0.24
23057 H 53.962438995561854 100.67152359395814 25.071673717454498 H 0.0 **** 0.06
23058 H 54.84168232092327 99.16806936135262 25.440469484915113 H 0.0 **** 0.06
23059 H 53.93107326711001 99.31721399275165 23.917374640220967 H 0.0 **** 0.06
23060 H 53.061728369731014 99.18801699202035 25.46512277006997 H 0.0 **** 0.06
23061 C 49.407968370090146 109.06750787002807 96.3474610683109 C 0.0 **** -0.24
23062 H 48.806412406800916 108.30262932154915 95.85713406012434 H 0.0 **** 0.06
23063 H 49.99140555171658 109.60531686765245 95.59933942303769 H 0.0 **** 0.06
23064 H 50.08114107151596 108.5968470046212 97.0642680687082 H 0.0 **** 0.06
23065 H 48.752826204598364 109.7662538305901 96.86812241738357 H 0.0 **** 0.06
23066 C 5.122582676252534 75.3981313947479 46.86323341363109 C 0.0 **** -0.24
23067 H 5.303773612924417 75.91377089274968 47.8057402208355 H 0.0 **** 0.06
23068 H 5.794317158327203 74.54406299825843 46.7808421986345 H 0.0 **** 0.06
23069 H 5.302103149145864 76.08279853028037 46.03416422640311 H 0.0 **** 0.06
23070 H 4.08928357856982 75.05341070669132 46.83120247251148 H 0.0 **** 0.06
23071 C 32.819081644176066 4.276233664828737 102.01308545345077 C 0.0 **** -0.24
23072 H 33.24675304310503 3.6210708870046346 102.7723767879645 H 0.0 **** 0.06
23073 H 33.480691391483674 5.128237242621367 101.85412671370213 H 0.0 **** 0.06
23074 H 31.842958184792167 4.629681459038238 102.34557763281805 H 0.0 **** 0.06
23075 H 32.70709285333396 3.724086914212279 101.07917381359101 H 0.0 **** 0.06
23076 C 7.5542832352837195 59.27934304386878 79.00148713526102 C 0.0 **** -0.24
23077 H 6.9507923791233 58.965217652524245 78.14996003206386 H 0.0 **** 0.06
23078 H 7.327677668046022 58.64596500136793 79.85995532938355 H 0.0 **** 0.06
23079 H 7.3280592541537715 60.31656875439978 79.24485069015816 H 0.0 **** 0.06
23080 H 8.611488950619275 59.18679710510031 78.75068886232285 H 0.0 **** 0.06
23081 C 21.742074563410597 41.476951941105256 41.48404875904431 C 0.0 **** -0.24
23082 H 21.28898287784068 40.52654106969956 41.20107610924273 H 0.0 **** 0.06
23083 H 22.78890239836653 41.48489729034851 41.180864442550565 H 0.0 **** 0.06
23084 H 21.675481809531618 41.60270364681472 42.565465142540226 H 0.0 **** 0.06
23085 H 21.21345381075173 42.29222974427665 40.990970119735785 H 0.0 **** 0.06
23086 C 3.2163925805317746 63.73536144694822 3.972729975900691 C 0.0 **** -0.24
23087 H 3.7534272926839805 63.551458921298774 4.9036166537150905 H 0.0 **** 0.06
23088 H 2.7269371682225625 64.70804841212095 4.021932182408008 H 0.0 **** 0.06
23089 H 2.4671194998371533 62.957954840721584 3.827106677541579 H 0.0 **** 0.06
23090 H 3.9185461031361797 63.72407136602834 3.139598949973333 H 0.0 **** 0.06
23091 C 39.54198018444412 27.650608319082863 58.37615722745997 C 0.0 **** -0.24
23092 H 39.33415635526949 26.79222050724192 59.01517133120447 H 0.0 **** 0.06
23093 H 39.88357360510468 28.48472305412676 58.98984443355985 H 0.0 **** 0.06
23094 H 38.63384109316699 27.936757964082318 57.84501393624575 H 0.0 **** 0.06
23095 H 40.316929035297285 27.388018504452106 57.65606747380954 H 0.0 **** 0.06
23096 C 92.74588324023617 67.04028049442056 81.68246852537902 C 0.0 **** -0.24
23097 H 92.3971411855664 68.02122623930867 82.00335128131695 H 0.0 **** 0.06
23098 H 93.72461342501788 67.13815472549729 81.21250122366934 H 0.0 **** 0.06
23099 H 92.03900429257988 66.62018075880678 80.96638207613918 H 0.0 **** 0.06
23100 H 92.82192682877067 66.38113606287152 82.54795939779783 H 0.0 **** 0.06
23101 C 94.86500011572411 12.909635668629676 15.165581275058429 C 0.0 **** -0.24
23102 H 95.2392896939885 12.754544901040163 14.153791997811766 H 0.0 **** 0.06
23103 H 94.50199680306827 13.933060386897523 15.26514977601147 H 0.0 **** 0.06
23104 H 95.66937116843337 12.73821822139655 15.880302625085335 H 0.0 **** 0.06
23105 H 94.04979515637979 12.213517824459814 15.362004770021798 H 0.0 **** 0.06
23106 C 100.36529997598498 50.90525935937541 109.98483056776101 C 0.0 **** -0.24
23107 H 101.40360023581113 51.17682795243937 110.18008569245309 H 0.0 **** 0.06
23108 H 99.9894916432427 51.49074339567176 109.14533609601078 H 0.0 **** 0.06
23109 H 99.76442830286081 51.11220504834108 110.87001024728401 H 0.0 **** 0.06
23110 H 100.30615062572792 49.844061894148666 109.74563689528335 H 0.0 **** 0.06
23111 C 53.287602286038464 9.466168531437233 111.14135546694098 C 0.0 **** -0.24
23112 H 53.63214296046456 10.494781970996215 111.2474096964323 H 0.0 **** 0.06
23113 H 54.08895892564462 8.855818333293726 110.72358803713061 H 0.0 **** 0.06
23114 H 52.42431563331442 9.438393186280337 110.47636517877697 H 0.0 **** 0.06
23115 H 53.00588748772688 9.074782359982166 112.11868397111189 H 0.0 **** 0.06
23116 C 112.18355309105496 32.83464993891721 112.44510096628676 C 0.0 **** -0.24
23117 H 111.83321985779425 33.38908870615623 111.5742590223125 H 0.0 **** 0.06
23118 H 112.51068240082024 31.84242928012665 112.13714338893442 H 0.0 **** 0.06
23119 H 111.37246070252388 32.7422358247488 113.16806930220166 H 0.0 **** 0.06
23120 H 113.01819163393388 33.36706593796444 112.90265115183185 H 0.0 **** 0.06
23121 C 57.08545976065744 14.266766690558953 100.27167781266638 C 0.0 **** -0.24
23122 H 56.47851672400765 13.56315066850918 100.84167259113838 H 0.0 **** 0.06
23123 H 58.02899543081594 14.435506021376398 100.79154694791339 H 0.0 **** 0.06
23124 H 56.55014866179994 15.210973498621357 100.1724966124359 H 0.0 **** 0.06
23125 H 57.2844197518412 13.85543501095296 99.28196241264448 H 0.0 **** 0.06
23126 C 65.40431639282968 28.939515618620362 59.15328719581987 C 0.0 **** -0.24
23127 H 66.45820030221262 29.19524412601986 59.26183677668371 H 0.0 **** 0.06
23128 H 65.20404806015023 28.65674613525431 58.11943108855621 H 0.0 **** 0.06
23129 H 64.79137263820769 29.800338751589436 59.42002276452348 H 0.0 **** 0.06
23130 H 65.16479888987365 28.10381467835569 59.810865098385534 H 0.0 **** 0.06
23131 C 37.24665728087055 109.52101919403248 19.132128375371977 C 0.0 **** -0.24
23132 H 36.99697075176053 109.40793377045134 20.18737988427138 H 0.0 **** 0.06
23133 H 38.31952667217257 109.3816897991664 18.99592620854392 H 0.0 **** 0.06
23134 H 36.9643929123952 110.51914543191845 18.797532773477712 H 0.0 **** 0.06
23135 H 36.706001080403496 108.77510120978849 18.549048915617206 H 0.0 **** 0.06
23136 C 81.6139432146777 52.8029239789942 23.657409982008375 C 0.0 **** -0.24
23137 H 82.3420722750271 52.025832719164285 23.427926745529362 H 0.0 **** 0.06
23138 H 81.97992369095257 53.76233661830313 23.292652484602854 H 0.0 **** 0.06
23139 H 81.46727568555173 52.856467045319874 24.736219590631862 H 0.0 **** 0.06
23140 H 80.66603239823857 52.56790443453279 23.173098821490754 H 0.0 **** 0.06
23141 C 29.707486403947115 68.64691822738718 103.63885011091904 C 0.0 **** -0.24
23142 H 28.864225902060312 68.33867407632178 103.0195846238247 H 0.0 **** 0.06
23143 H 29.338408462253426 69.02986241856897 104.5902320546472 H 0.0 **** 0.06
23144 H 30.26838419452517 69.42726826337474 103.12411143684761 H 0.0 **** 0.06
23145 H 30.35679490787635 67.79076858860935 103.81918201697667 H 0.0 **** 0.06
23146 C 51.96404964914706 10.336177921395887 90.491591545175 C 0.0 **** -0.24
23147 H 52.712607258248994 9.59027762666885 90.75924180109138 H 0.0 **** 0.06
23148 H 52.22230553182939 11.290455683856209 90.95133416342452 H 0.0 **** 0.06
23149 H 50.98584081983441 10.012637496279567 90.84834567809614 H 0.0 **** 0.06
23150 H 51.935676002886765 10.450485361001668 89.40854673330227 H 0.0 **** 0.06
23151 C 96.18352177306144 0.4410206435711075 102.40303659334398 C 0.0 **** -0.24
23152 H 96.27873959557212 -0.04557033293971813 101.43188303847873 H 0.0 **** 0.06
23153 H 95.9660002560936 -0.3085138834599661 103.16453434307897 H 0.0 **** 0.06
23154 H 95.37443612372977 1.1694681514891982 102.3667468818197 H 0.0 **** 0.06
23155 H 97.11803416943252 0.9466629157005713 102.64695642654581 H 0.0 **** 0.06
23156 C 17.79311362320051 69.01367304128684 37.807485008789484 C 0.0 **** -0.24
23157 H 18.414760831862893 69.8561966892332 37.505793120717584 H 0.0 **** 0.06
23158 H 17.123770243899912 68.74506397451486 36.98923132517842 H 0.0 **** 0.06
23159 H 17.205397368426418 69.29076106570739 38.68262455065784 H 0.0 **** 0.06
23160 H 18.42813132011665 68.16268135599495 38.05137227482324 H 0.0 **** 0.06
23161 C 103.33981806243955 99.21974428814221 14.51680353315102 C 0.0 **** -0.24
23162 H 103.5042820047629 100.10860987136047 15.126447704539544 H 0.0 **** 0.06
23163 H 103.4835319183218 98.32800848788511 15.128181539363624 H 0.0 **** 0.06
23164 H 104.04823808648015 99.21068656516363 13.688917445915337 H 0.0 **** 0.06
23165 H 102.32212714466436 99.23266703073176 14.12457059292754 H 0.0 **** 0.06
23166 C 49.15880976259285 36.07197927579071 71.97607833327473 C 0.0 **** -0.24
23167 H 50.02442116873385 36.48192853472898 72.49658952244482 H 0.0 **** 0.06
23168 H 49.18037952746903 34.98402199416327 72.03684898140088 H 0.0 **** 0.06
23169 H 49.1842884742905 36.378824338265986 70.93039657425487 H 0.0 **** 0.06
23170 H 48.246150296467135 36.44394635956999 72.44256479968683 H 0.0 **** 0.06
23171 C 73.27482573426556 32.13619260021443 70.62383902134326 C 0.0 **** -0.24
23172 H 73.23679083375535 32.8349876351773 71.45974766345364 H 0.0 **** 0.06
23173 H 74.29441017238457 31.770383931913074 70.50187185570707 H 0.0 **** 0.06
23174 H 72.95932763227773 32.64337349163111 69.71161266370189 H 0.0 **** 0.06
23175 H 72.60931615772029 31.296703378583913 70.82162720135096 H 0.0 **** 0.06
23176 C 31.023320933770464 48.580736232433765 98.57240906466782 C 0.0 **** -0.24
23177 H 30.3064621333165 48.330732433273624 97.79131441017753 H 0.0 **** 0.06
23178 H 31.36356794168634 49.60763465258577 98.43774275039627 H 0.0 **** 0.06
23179 H 31.87679275592336 47.903974060597136 98.5128078281918 H 0.0 **** 0.06
23180 H 30.547755185681837 48.48007104353633 99.5479740928466 H 0.0 **** 0.06
23181 C 33.16474764697537 68.51888815115964 105.84049080815757 C 0.0 **** -0.24
23182 H 34.11913037760954 68.74824651202732 105.3673220304037 H 0.0 **** 0.06
23183 H 33.18077967244261 68.85856396274403 106.87613539594483 H 0.0 **** 0.06
23184 H 32.996493815157294 67.4419968961362 105.81348528238777 H 0.0 **** 0.06
23185 H 32.36235072513753 69.02545929945586 105.3044812728943 H 0.0 **** 0.06
23186 C 31.20580624578801 91.21868624401469 30.783948784735486 C 0.0 **** -0.24
23187 H 32.25255059749523 91.46907504045797 30.949960769737658 H 0.0 **** 0.06
23188 H 30.637951378948145 92.13154776984916 30.600751774521797 H 0.0 **** 0.06
23189 H 30.808796085292926 90.7145279080261 31.66509786456251 H 0.0 **** 0.06
23190 H 31.122843593531172 90.5588411642346 29.919475451869943 H 0.0 **** 0.06
23191 C 93.95072362456426 28.502609447636672 106.99212206000426 C 0.0 **** -0.24
23192 H 94.59311968811838 29.191224213799643 107.54180236946716 H 0.0 **** 0.06
23193 H 94.27818960462162 28.451393015504152 105.9535021457674 H 0.0 **** 0.06
23194 H 92.92083542381556 28.85687367794995 107.03272406533273 H 0.0 **** 0.06
23195 H 94.01197356138101 27.511287236134592 107.44229998737086 H 0.0 **** 0.06
23196 C 108.4589256889046 13.774747927921695 45.77983345929679 C 0.0 **** -0.24
23197 H 108.35212533957342 14.792406449472026 45.40555394757773 H 0.0 **** 0.06
23198 H 107.98879315841583 13.080516411437088 45.082884085204505 H 0.0 **** 0.06
23199 H 107.97760316876038 13.693186765469804 46.754782606919704 H 0.0 **** 0.06
23200 H 109.51718108886885 13.532882085307989 45.87611319748506 H 0.0 **** 0.06
23201 C 88.90303895629052 36.41505781835892 20.140062592941874 C 0.0 **** -0.24
23202 H 88.60264063757819 36.03590026453708 21.116742058195 H 0.0 **** 0.06
23203 H 88.14884647066495 37.111820534925386 19.773216788655304 H 0.0 **** 0.06
23204 H 89.00023319699136 35.584118349658524 19.441814619768195 H 0.0 **** 0.06
23205 H 89.86043551992739 36.92839212431451 20.22847690514888 H 0.0 **** 0.06
23206 C 65.27809163726658 101.55037330893347 17.104125111337964 C 0.0 **** -0.24
23207 H 64.64017413587038 102.33341904391617 16.693987280912978 H 0.0 **** 0.06
23208 H 64.89707735314329 101.24338642666513 18.07817673422042 H 0.0 **** 0.06
23209 H 66.29395310080821 101.93013423723295 17.2141047661608 H 0.0 **** 0.06
23210 H 65.28171638697754 100.69402574398325 16.429588149699697 H 0.0 **** 0.06
23211 C 43.414615572797004 62.533756103257495 6.192064819160805 C 0.0 **** -0.24
23212 H 42.929077213091375 62.0655004883369 7.0489671692261595 H 0.0 **** 0.06
23213 H 43.6320553440317 63.57656089947711 6.424608432367563 H 0.0 **** 0.06
23214 H 42.75243865944435 62.48447822591775 5.328116457758711 H 0.0 **** 0.06
23215 H 44.34355160749283 62.00925348193858 5.969326840824692 H 0.0 **** 0.06
23216 C 48.65832072330056 89.61592935694551 26.794062443379374 C 0.0 **** -0.24
23217 H 48.084242981006014 88.69013559990395 26.772661531009277 H 0.0 **** 0.06
23218 H 49.70880143410466 89.39734749727978 26.60059494885681 H 0.0 **** 0.06
23219 H 48.55814622793861 90.08198681903446 27.77520106910606 H 0.0 **** 0.06
23220 H 48.2820508058586 90.29541238699565 26.029073441845128 H 0.0 **** 0.06
23221 C 54.27270302977186 15.240655673071785 64.21885412927543 C 0.0 **** -0.24
23222 H 54.16646032695138 16.303838898380178 64.00058050615766 H 0.0 **** 0.06
23223 H 55.17401500947469 14.86015860693226 63.73841362330913 H 0.0 **** 0.06
23224 H 53.4037103062341 14.704398591701377 63.83816218957878 H 0.0 **** 0.06
23225 H 54.34609704691562 15.096614420100622 65.296522812808 H 0.0 **** 0.06
23226 C 57.12834049898029 17.514384591556137 98.0416168464574 C 0.0 **** -0.24
23227 H 56.19975117910815 17.60458047887306 98.60486718314837 H 0.0 **** 0.06
23228 H 56.98823431299587 17.929029732311477 97.04280199105833 H 0.0 **** 0.06
23229 H 57.40431704774326 16.463314344786795 97.96315913888824 H 0.0 **** 0.06
23230 H 57.918802952729294 18.060860734321693 98.55471844170006 H 0.0 **** 0.06
23231 C 63.764249793640374 93.28445002853977 28.464401750983285 C 0.0 **** -0.24
23232 H 63.65410969711661 94.0513764843584 29.230539018823862 H 0.0 **** 0.06
23233 H 63.98006123463722 93.7573263626621 27.50576895139804 H 0.0 **** 0.06
23234 H 62.83949712225285 92.71165849795833 28.38746794910068 H 0.0 **** 0.06
23235 H 64.5833311205547 92.61743876917984 28.733831084610557 H 0.0 **** 0.06
23236 C 71.05797915651866 7.372481606460411 26.0085292786235 C 0.0 **** -0.24
23237 H 70.26562729921434 6.885312065100692 26.577645097728116 H 0.0 **** 0.06
23238 H 70.62248995885366 7.90337915684313 25.1618000661112 H 0.0 **** 0.06
23239 H 71.75878089329419 6.62036615385793 25.646213587905393 H 0.0 **** 0.06
23240 H 71.58295621219224 8.079691279894746 26.64999471706149 H 0.0 **** 0.06
23241 C 24.18577019500634 81.30494174823639 13.076001943143524 C 0.0 **** -0.24
23242 H 24.86114635397658 81.16210262996748 13.91914154083662 H 0.0 **** 0.06
23243 H 24.521770434914785 82.15611105962867 12.481766158372722 H 0.0 **** 0.06
23244 H 23.17806115975344 81.49409163502767 13.44535974576337 H 0.0 **** 0.06
23245 H 24.183943284396946 80.40769575904662 12.45614086688974 H 0.0 **** 0.06
23246 C 71.87009676751529 100.77552066677907 105.90542091346768 C 0.0 **** -0.24
23247 H 72.92302283501962 100.8355136362984 106.18326440552943 H 0.0 **** 0.06
23248 H 71.30799124203455 100.30764931980713 106.71354538463733 H 0.0 **** 0.06
23249 H 71.7681238739467 100.17978510980862 104.99850909469839 H 0.0 **** 0.06
23250 H 71.48369344095045 101.77917558003543 105.7265195319676 H 0.0 **** 0.06
23251 C 3.424536628514801 54.74842401702476 71.98477981054776 C 0.0 **** -0.24
23252 H 2.709083034962333 55.12899131405767 71.25534707486361 H 0.0 **** 0.06
23253 H 3.223631947274839 53.69425366648499 72.1750258497284 H 0.0 **** 0.06
23254 H 3.330118084090742 55.3111040952843 72.91325632008733 H 0.0 **** 0.06
23255 H 4.436329486463421 54.860463250800066 71.59289728798177 H 0.0 **** 0.06
23256 C 29.761563892774603 50.89465281594079 87.86012350764335 C 0.0 **** -0.24
23257 H 29.92490604237986 51.22647790361896 86.83439406533265 H 0.0 **** 0.06
23258 H 30.2348838094166 51.596237987112886 88.54804281417896 H 0.0 **** 0.06
23259 H 30.19626669683305 49.904312567034026 87.99461900106556 H 0.0 **** 0.06
23260 H 28.69155429155839 50.852945407832635 88.06229497653987 H 0.0 **** 0.06
23261 C 61.73929561079016 69.7255181254232 74.82104924216799 C 0.0 **** -0.24
23262 H 60.758886539629124 69.44332905272447 74.43547324513563 H 0.0 **** 0.06
23263 H 61.64456051139967 70.62172802834777 75.4339296895516 H 0.0 **** 0.06
23264 H 62.41293313700404 69.92392233981013 73.98809691702283 H 0.0 **** 0.06
23265 H 62.13917247568714 68.91172539574026 75.42600897443143 H 0.0 **** 0.06
23266 C 27.418519770124078 87.24500566403503 45.82759721662745 C 0.0 **** -0.24
23267 H 28.28433694707485 86.63150604106232 45.57662656148551 H 0.0 **** 0.06
23268 H 26.621410243718543 87.06128911896374 45.106163845686126 H 0.0 **** 0.06
23269 H 27.699885716961205 88.29813835322221 45.800372534169014 H 0.0 **** 0.06
23270 H 27.06991725221036 86.98754349132093 46.8278946329047 H 0.0 **** 0.06
23271 C 89.9616485434378 26.991847722755523 104.13071825198026 C 0.0 **** -0.24
23272 H 89.41888038094584 27.685549717121745 103.48883614506437 H 0.0 **** 0.06
23273 H 90.06589329510373 26.032388903212166 103.6226845170554 H 0.0 **** 0.06
23274 H 89.41116195653635 26.851846217362265 105.06160683150225 H 0.0 **** 0.06
23275 H 90.94911619070498 27.396804226898638 104.35073468381583 H 0.0 **** 0.06
23276 C 13.352061451751581 70.90172476096322 30.83281207405895 C 0.0 **** -0.24
23277 H 14.399592937044986 70.63994413404708 30.983795885446455 H 0.0 **** 0.06
23278 H 12.832036455836715 70.88560659661294 31.790786820624874 H 0.0 **** 0.06
23279 H 12.89240695044515 70.1809388437222 30.15610620951719 H 0.0 **** 0.06
23280 H 13.286412820978228 71.89960951727215 30.399848301581585 H 0.0 **** 0.06
23281 C 20.092349618742777 49.32684096227604 75.1345550734402 C 0.0 **** -0.24
23282 H 19.548371944749572 50.27066299737618 75.16556509791886 H 0.0 **** 0.06
23283 H 19.385158643839667 48.49902081249485 75.19674173354426 H 0.0 **** 0.06
23284 H 20.784071905492183 49.27845987363372 75.97532074565001 H 0.0 **** 0.06
23285 H 20.65044142481735 49.258850864969645 74.20042269212357 H 0.0 **** 0.06
23286 C 67.28649078015081 29.348590697612053 31.91226311207116 C 0.0 **** -0.24
23287 H 67.78830109854943 28.468374527547837 31.510429457622777 H 0.0 **** 0.06
23288 H 67.59966111782279 29.50572500405434 32.94450220712716 H 0.0 **** 0.06
23289 H 66.20759516507951 29.19897379754474 31.877775496197557 H 0.0 **** 0.06
23290 H 67.55266183959526 30.221529340131895 31.315421810604704 H 0.0 **** 0.06
23291 C 67.03428281523372 25.363226364405136 64.99628655977514 C 0.0 **** -0.24
23292 H 66.64517594057872 26.012267691372443 64.21216121765386 H 0.0 **** 0.06
23293 H 66.3062646793025 24.58070049928014 65.21316977075602 H 0.0 **** 0.06
23294 H 67.21697420170736 25.949588876732975 65.89592268769118 H 0.0 **** 0.06
23295 H 67.96732245165086 24.90984211216309 64.66221901454242 H 0.0 **** 0.06
23296 C 48.32652821329723 38.58943015565606 11.015913779672502 C 0.0 **** -0.24
23297 H 49.19616640831135 38.293292743121725 11.602734403946329 H 0.0 **** 0.06
23298 H 47.70063869376779 39.25726740052903 11.60745506192805 H 0.0 **** 0.06
23299 H 47.754656076491315 37.702961911575386 10.741642563018814 H 0.0 **** 0.06
23300 H 48.65609247538998 39.1032383797498 10.113555854396537 H 0.0 **** 0.06
23301 C 67.91820830398885 109.15842484890709 27.922562959449237 C 0.0 **** -0.24
23302 H 67.50864082962792 109.5180227468903 26.978298029000428 H 0.0 **** 0.06
23303 H 67.80495808516409 108.07566201529949 27.977766510718737 H 0.0 **** 0.06
23304 H 67.38358357364271 109.62360342385865 28.750501760226484 H 0.0 **** 0.06
23305 H 68.97484487937905 109.41784585560242 27.980805776832995 H 0.0 **** 0.06
23306 C 20.487205773270755 105.8836498583893 88.99168691464484 C 0.0 **** -0.24
23307 H 21.215787348577624 105.21467295605558 89.45026647523264 H 0.0 **** 0.06
23308 H 19.645172671169846 106.02272244703138 89.6702534184466 H 0.0 **** 0.06
23309 H 20.13417856925501 105.44953893701827 88.05659180945179 H 0.0 **** 0.06
23310 H 20.955677584286466 106.84734750141438 88.7905987899145 H 0.0 **** 0.06
23311 C 21.028434400960776 34.13489482977889 93.54171744125182 C 0.0 **** -0.24
23312 H 21.904464670578392 33.91256400607591 94.1501320205652 H 0.0 **** 0.06
23313 H 21.347786883525572 34.50975530126465 92.56891065085938 H 0.0 **** 0.06
23314 H 20.421647051053156 34.88965527744631 94.04092993069574 H 0.0 **** 0.06
23315 H 20.439731805951226 33.22683535825814 93.40626737966787 H 0.0 **** 0.06
23316 C 1.0262151791788483 34.41205320402611 34.57616417466366 C 0.0 **** -0.24
23317 H 0.3400415892064643 34.46948756360072 33.730979278126284 H 0.0 **** 0.06
23318 H 1.3431927748725059 33.37773660763483 34.71734098532163 H 0.0 **** 0.06
23319 H 0.5230356235547902 34.76383035396475 35.477375370172254 H 0.0 **** 0.06
23320 H 1.8977475303272797 35.035550389817814 34.38026642076211 H 0.0 **** 0.06
23321 C 6.31882810968014 52.10903081452448 66.42040398651625 C 0.0 **** -0.24
23322 H 5.631037256854 51.30649932050405 66.15321050525145 H 0.0 **** 0.06
23323 H 7.212862770560804 51.68382959440991 66.8764328613083 H 0.0 **** 0.06
23324 H 5.83347887604441 52.78171594013521 67.12805663775595 H 0.0 **** 0.06
23325 H 6.5952168718579856 52.66246002629143 65.52395005718577 H 0.0 **** 0.06
23326 C 35.07358820872173 75.06194695518502 19.040780820379837 C 0.0 **** -0.24
23327 H 34.497508678791235 75.5777623486288 19.80855045062637 H 0.0 **** 0.06
23328 H 35.465361344521 75.78998634958438 18.331151492360164 H 0.0 **** 0.06
23329 H 34.4301397719064 74.35463433732951 18.518726906632963 H 0.0 **** 0.06
23330 H 35.90037775032545 74.52563683049132 19.506698092321216 H 0.0 **** 0.06
23331 C 99.43592139605266 77.82965879316325 103.85950276364761 C 0.0 **** -0.24
23332 H 98.41849690681155 78.11269261782081 104.13035084249509 H 0.0 **** 0.06
23333 H 99.72079665186467 76.93054561728883 104.40539555933003 H 0.0 **** 0.06
23334 H 100.11742756237851 78.6409368375258 104.11279428471963 H 0.0 **** 0.06
23335 H 99.48377324755637 77.63438262236826 102.78751820659244 H 0.0 **** 0.06
23336 C 76.82710402757391 61.41788856730108 68.05365267794812 C 0.0 **** -0.24
23337 H 76.49154900654617 61.99607917595429 68.91374555426196 H 0.0 **** 0.06
23338 H 75.96251670591334 61.02402287157804 67.52012580823416 H 0.0 **** 0.06
23339 H 77.4524854999301 60.591882976153755 68.39439634410505 H 0.0 **** 0.06
23340 H 77.40514310829911 62.059678463337974 67.38784038473347 H 0.0 **** 0.06
23341 C 12.26986805921419 51.217810517599474 96.8247663835703 C 0.0 **** -0.24
23342 H 13.268299551770042 51.4646946206619 97.1851053337403 H 0.0 **** 0.06
23343 H 12.02752565956618 50.19180264935264 97.1038478658187 H 0.0 **** 0.06
23344 H 12.24133172573005 51.31562378692385 95.73954261349098 H 0.0 **** 0.06
23345 H 11.545079366747586 51.89799141522147 97.27027911464 H 0.0 **** 0.06
23346 C 23.163924511115 93.69346847634472 44.78003768419265 C 0.0 **** -0.24
23347 H 23.24709319556655 93.61937236493816 45.86452334540732 H 0.0 **** 0.06
23348 H 23.56975393053213 94.64951766753086 44.449078736462866 H 0.0 **** 0.06
23349 H 22.11604445189039 93.62261066295889 44.490882257089964 H 0.0 **** 0.06
23350 H 23.724712673570394 92.88040835152435 44.31689367787993 H 0.0 **** 0.06
23351 C 4.2643929891539045 104.1932982439576 53.684246975461576 C 0.0 **** -0.24
23352 H 5.177816945182244 104.57500746505835 54.14160044929126 H 0.0 **** 0.06
23353 H 3.49624731958383 104.96506784843862 53.7084790472307 H 0.0 **** 0.06
23354 H 3.919600378720787 103.31926399131856 54.23820876190091 H 0.0 **** 0.06
23355 H 4.466155406417613 103.91149056791204 52.65053338670401 H 0.0 **** 0.06
23356 C 104.49229577698279 69.22979659937965 74.76831556024058 C 0.0 **** -0.24
23357 H 104.13258707535945 68.42755552375331 75.41161581929833 H 0.0 **** 0.06
23358 H 105.54392202104512 69.42347096486571 74.98203717703768 H 0.0 **** 0.06
23359 H 103.91062363404961 70.13327083309287 74.9551772673019 H 0.0 **** 0.06
23360 H 104.38147780000682 68.93570061441537 73.72454866858806 H 0.0 **** 0.06
23361 C 110.73598566982224 68.89180452685605 37.09615788400756 C 0.0 **** -0.24
23362 H 111.63199875335556 68.44730592489353 37.530655294022814 H 0.0 **** 0.06
23363 H 109.87961086372934 68.24538008435104 37.29068571482863 H 0.0 **** 0.06
23364 H 110.87089980110125 69.0035408672347 36.02032027649394 H 0.0 **** 0.06
23365 H 110.56263215569612 69.86954494734766 37.54454227353843 H 0.0 **** 0.06
23366 C 79.01901216685872 75.17751471658025 45.51743003133248 C 0.0 **** -0.24
23367 H 79.86463408050471 75.26382134112868 46.20089782384133 H 0.0 **** 0.06
23368 H 78.23878147771563 75.87796720557304 45.81557728096115 H 0.0 **** 0.06
23369 H 78.6277094053091 74.16084608500273 45.549947939783124 H 0.0 **** 0.06
23370 H 79.34731612046008 75.40771938320958 44.50373247789537 H 0.0 **** 0.06
23371 C 87.9048328078901 101.71569503445409 94.37965291072209 C 0.0 **** -0.24
23372 H 87.7705054060504 100.65261488852212 94.57961077070027 H 0.0 **** 0.06
23373 H 88.81066847683428 101.86248220368225 93.79113215769422 H 0.0 **** 0.06
23374 H 87.99260851213478 102.25425293427088 95.32303893068291 H 0.0 **** 0.06
23375 H 87.04581127907781 102.09204154696363 93.82488569742065 H 0.0 **** 0.06
23376 C 79.03118276856736 39.33595155506154 19.61497524252465 C 0.0 **** -0.24
23377 H 79.26223882381043 38.82472826231307 18.680293345321843 H 0.0 **** 0.06
23378 H 79.91965361154155 39.36040666557571 20.24525601258 H 0.0 **** 0.06
23379 H 78.23349624777632 38.80236239567628 20.131939673536493 H 0.0 **** 0.06
23380 H 78.70688032803076 40.35474637924733 19.401706747181066 H 0.0 **** 0.06
23381 C 67.66373808191767 33.734902754343985 102.1897107886951 C 0.0 **** -0.24
23382 H 68.5148537255995 34.249756102875594 101.74491697631984 H 0.0 **** 0.06
23383 H 66.77341549991186 34.3583355289585 102.09648646388197 H 0.0 **** 0.06
23384 H 67.86534772021943 33.54540986853117 103.24407903453468 H 0.0 **** 0.06
23385 H 67.50115584114363 32.78896193285451 101.67427282009277 H 0.0 **** 0.06
23386 C 81.98896040224656 65.79943892952721 55.40058089265896 C 0.0 **** -0.24
23387 H 81.66611758026545 66.11439667953348 54.4080676480451 H 0.0 **** 0.06
23388 H 82.51456696652 66.62013674882479 55.88837716041536 H 0.0 **** 0.06
23389 H 82.655317535753 64.94169465817856 55.31106940511567 H 0.0 **** 0.06
23390 H 81.11672594144824 65.52252093875737 55.99424406664859 H 0.0 **** 0.06
23391 C 109.02892549137408 65.16379283434014 78.11590065666542 C 0.0 **** -0.24
23392 H 109.10433193375417 65.4292067307405 79.16934101803605 H 0.0 **** 0.06
23393 H 109.47332487107678 64.18107866665028 77.95602731952985 H 0.0 **** 0.06
23394 H 109.55859691476081 65.90378704122278 77.51550230876293 H 0.0 **** 0.06
23395 H 107.9790711976818 65.14073707171909 77.82108059121751 H 0.0 **** 0.06
23396 C 106.64572380206556 35.69021754817095 108.39266375020608 C 0.0 **** -0.24
23397 H 107.26131685863416 34.896712736993265 107.96977646572554 H 0.0 **** 0.06
23398 H 107.0311442784138 35.96328181404098 109.37527017327187 H 0.0 **** 0.06
23399 H 105.61842215118506 35.34104589449561 108.48909391691197 H 0.0 **** 0.06
23400 H 106.67422014370594 36.560148074410904 107.73666510867835 H 0.0 **** 0.06
23401 C 55.819411944869934 51.901774611836544 25.532536888745028 C 0.0 **** -0.24
23402 H 55.45250656326674 50.88459183282552 25.673962104344355 H 0.0 **** 0.06
23403 H 55.75582037216992 52.444349008586414 26.476476294716463 H 0.0 **** 0.06
23404 H 55.21238735227136 52.40591923660784 24.780974718296818 H 0.0 **** 0.06
23405 H 56.857187004962334 51.86932419381617 25.19993605295025 H 0.0 **** 0.06
23406 C 61.524483233773566 97.21604176257065 89.27341393736174 C 0.0 **** -0.24
23407 H 61.668396557598754 97.27917062626318 88.19474573154429 H 0.0 **** 0.06
23408 H 62.44714233734436 97.49877403995976 89.78012393467557 H 0.0 **** 0.06
23409 H 61.25760108454111 96.19480437380756 89.54422654647047 H 0.0 **** 0.06
23410 H 60.723128436808 97.89201019187675 89.57286276381353 H 0.0 **** 0.06
23411 C 80.83936780537022 103.51538836618616 49.2500730312679 C 0.0 **** -0.24
23412 H 79.98768869453161 103.68960914114155 48.592888753448165 H 0.0 **** 0.06
23413 H 81.4920305968115 104.38835022029951 49.236871612020394 H 0.0 **** 0.06
23414 H 81.3929079502004 102.642252662794 48.90513865871719 H 0.0 **** 0.06
23415 H 80.48414047880448 103.34185648447689 50.26588286878109 H 0.0 **** 0.06
23416 C 91.94134919003173 107.87070968848602 26.980687297558774 C 0.0 **** -0.24
23417 H 91.54866126240896 108.8364952451127 26.66346685392753 H 0.0 **** 0.06
23418 H 92.02059213461186 107.84865827243107 28.067470471390777 H 0.0 **** 0.06
23419 H 92.9268313694329 107.7173960830208 26.54105427567106 H 0.0 **** 0.06
23420 H 91.2692408962993 107.07854071301317 26.64936540209368 H 0.0 **** 0.06
23421 C 89.81299800940468 5.69492567954552 8.499433284174856 C 0.0 **** -0.24
23422 H 88.7876757146793 5.78564437738703 8.14018305608181 H 0.0 **** 0.06
23423 H 89.92883136410558 6.2719829375476195 9.417010506678267 H 0.0 **** 0.06
23424 H 90.49750849062002 6.076057118570617 7.74055074474262 H 0.0 **** 0.06
23425 H 90.03683626518549 4.6469061581458675 8.69735973652611 H 0.0 **** 0.06
23426 C 93.86421576486427 59.832612769255924 30.483421475940048 C 0.0 **** -0.24
23427 H 94.57750812736327 60.30954072177769 29.809829441045338 H 0.0 **** 0.06
23428 H 93.20918155873699 59.17556385517934 29.91084717279668 H 0.0 **** 0.06
23429 H 93.26766569174083 60.59702830834515 30.98131632784333 H 0.0 **** 0.06
23430 H 94.40423198447797 59.24930816057475 31.22852317731224 H 0.0 **** 0.06
23431 C 78.13641498124832 4.82204472903825 19.03595572455626 C 0.0 **** -0.24
23432 H 78.82322900875653 4.7255766932737995 19.876823608369335 H 0.0 **** 0.06
23433 H 78.16307209258719 3.909730533295507 18.438540709544554 H 0.0 **** 0.06
23434 H 78.43426569924054 5.669478399891615 18.41916770043045 H 0.0 **** 0.06
23435 H 77.12542900300662 4.982121431338776 19.409810182627893 H 0.0 **** 0.06
23436 C 30.0047034595909 32.246925732733246 92.77833790079018 C 0.0 **** -0.24
23437 H 30.958765285481633 32.39363468979684 92.27342719184 H 0.0 **** 0.06
23438 H 30.11640609206802 31.484312732313526 93.55000000528062 H 0.0 **** 0.06
23439 H 29.256361576649255 31.923307262674427 92.05374698397915 H 0.0 **** 0.06
23440 H 29.686951288489183 33.18346031829424 93.23519547447188 H 0.0 **** 0.06
23441 C 105.5554690338424 43.26536580642909 82.66488231240402 C 0.0 **** -0.24
23442 H 106.42881330906988 42.63720545794507 82.48841485563955 H 0.0 **** 0.06
23443 H 104.92537056217861 42.80475573676432 83.4260227023046 H 0.0 **** 0.06
23444 H 104.9909670484787 43.36924908684529 81.73928085717338 H 0.0 **** 0.06
23445 H 105.87930990454308 44.24850021978028 83.00692795780861 H 0.0 **** 0.06
23446 C 95.52274045088265 20.461861871781167 87.52347453960488 C 0.0 **** -0.24
23447 H 94.55386629228977 20.295535206376115 87.99529521061675 H 0.0 **** 0.06
23448 H 95.40923366419864 21.161664598159888 86.69584133954339 H 0.0 **** 0.06
23449 H 95.91091645741892 19.514948067730614 87.14922063505395 H 0.0 **** 0.06
23450 H 96.21606874977749 20.874972147302316 88.25672293667748 H 0.0 **** 0.06
23451 C 50.0973404052408 0.004209671229489231 93.93332318872191 C 0.0 **** -0.24
23452 H 50.42955633235718 0.8953516734669904 93.40067329823296 H 0.0 **** 0.06
23453 H 49.143529406729556 -0.3292250381361157 93.52484400240877 H 0.0 **** 0.06
23454 H 49.9782644233301 0.23717448603112246 94.99159475671826 H 0.0 **** 0.06
23455 H 50.83894433727181 -0.7862695837293217 93.81722600062335 H 0.0 **** 0.06
23456 C 42.59206653175943 40.627731931625135 49.23978971870008 C 0.0 **** -0.24
23457 H 43.49162956367752 40.32454086713953 49.77582137866125 H 0.0 **** 0.06
23458 H 41.73219271026841 40.55905237236785 49.90609409105997 H 0.0 **** 0.06
23459 H 42.44118965411579 39.969821751411516 48.383395064122055 H 0.0 **** 0.06
23460 H 42.70399742607121 41.65429574886952 48.89353332677081 H 0.0 **** 0.06
23461 C 64.08580064282731 74.27301665316708 74.75526026008708 C 0.0 **** -0.24
23462 H 64.63474352099968 75.19981954508751 74.58220932117524 H 0.0 **** 0.06
23463 H 64.55809432869802 73.71823505461415 75.56638261792574 H 0.0 **** 0.06
23464 H 64.0971615121141 73.67071999127612 73.84743263810287 H 0.0 **** 0.06
23465 H 63.0564815681839 74.50578985007007 75.0248973748943 H 0.0 **** 0.06
23466 C 60.397694304462135 66.01548533499587 23.480768171002182 C 0.0 **** -0.24
23467 H 60.41498010420747 66.3229693372518 22.435051577336196 H 0.0 **** 0.06
23468 H 61.419119135672446 65.87381392617218 23.834021507139312 H 0.0 **** 0.06
23469 H 59.84710525575727 65.07929277622287 23.57458501002486 H 0.0 **** 0.06
23470 H 59.90955238241452 66.78596122140411 24.07741693780281 H 0.0 **** 0.06
23471 C 12.029263671353675 71.89640768554847 9.069173501728244 C 0.0 **** -0.24
23472 H 12.652124532633138 71.55435621602848 9.89579163478055 H 0.0 **** 0.06
23473 H 12.332859606875743 72.90197162689597 8.777188767822622 H 0.0 **** 0.06
23474 H 10.985105262435525 71.90889036008764 9.381851922170469 H 0.0 **** 0.06
23475 H 12.146965283470507 71.22041253918195 8.221861682139306 H 0.0 **** 0.06
23476 C 36.547274128237376 7.4396944905912505 56.697840239881884 C 0.0 **** -0.24
23477 H 36.810326945995186 7.834012306406578 57.67929734835195 H 0.0 **** 0.06
23478 H 36.4490429263943 6.355366055082527 56.756822522552 H 0.0 **** 0.06
23479 H 37.327914166117644 7.696402195611938 55.98230573413798 H 0.0 **** 0.06
23480 H 35.600745232714885 7.872587858439147 56.37376804887174 H 0.0 **** 0.06
23481 C 64.50310370230906 81.30626773545615 104.4102557940898 C 0.0 **** -0.24
23482 H 65.00501315477567 81.74840895661308 105.27151388095226 H 0.0 **** 0.06
23483 H 64.39155855749627 80.23259453765172 104.56678063631645 H 0.0 **** 0.06
23484 H 65.09617161632411 81.48292346768022 103.51347737261611 H 0.0 **** 0.06
23485 H 63.519146097855675 81.75996325796368 104.291958753778 H 0.0 **** 0.06
23486 C 58.30719221843117 68.02995774521054 96.00677523675762 C 0.0 **** -0.24
23487 H 58.43573031266527 68.9030855926853 96.64604597609193 H 0.0 **** 0.06
23488 H 57.25021972740325 67.76425518901138 95.96321166957415 H 0.0 **** 0.06
23489 H 58.87535186170555 67.19368529879247 96.41438830858849 H 0.0 **** 0.06
23490 H 58.66627134112042 68.25808745151662 95.00369131359943 H 0.0 **** 0.06
23491 C 69.40138311145012 102.4808960845971 2.0682140528250983 C 0.0 **** -0.24
23492 H 68.62517359972634 101.74438637427127 1.8602582032693817 H 0.0 **** 0.06
23493 H 70.36830908588797 102.0877285527531 1.7541474276084728 H 0.0 **** 0.06
23494 H 69.42397910569309 102.6921039611629 3.137563889620509 H 0.0 **** 0.06
23495 H 69.18681554561346 103.39927573656618 1.5215322654387364 H 0.0 **** 0.06
23496 C 106.93584798693995 20.75063928261571 66.67007208656136 C 0.0 **** -0.24
23497 H 106.58358054618354 21.76579488818939 66.48808550326765 H 0.0 **** 0.06
23498 H 106.93927373762864 20.194106525743734 65.73249916508465 H 0.0 **** 0.06
23499 H 106.27292197323834 20.258836354869345 67.38186725662905 H 0.0 **** 0.06
23500 H 107.94628524685018 20.78439666878151 67.07688942295499 H 0.0 **** 0.06
23501 C 91.39355163232301 81.82235708590875 100.49764954348947 C 0.0 **** -0.24
23502 H 92.22120059920803 82.52210656286647 100.38260940024966 H 0.0 **** 0.06
23503 H 91.53321120185998 80.97960044477705 99.8201734383407 H 0.0 **** 0.06
23504 H 90.45618390515816 82.32646816580302 100.26331830374102 H 0.0 **** 0.06
23505 H 91.3636047956852 81.46082738630534 101.52540186778808 H 0.0 **** 0.06
23506 C 98.87163806591596 21.62678507390831 62.051800584839164 C 0.0 **** -0.24
23507 H 98.12029920732678 22.33876460771654 61.71090114756651 H 0.0 **** 0.06
23508 H 98.77805440177838 20.700217434771275 61.48441715152379 H 0.0 **** 0.06
23509 H 98.72236302921382 21.420733878820442 63.11239303383301 H 0.0 **** 0.06
23510 H 99.86595898524709 22.047071641959235 61.90041859413072 H 0.0 **** 0.06
23511 C 54.558847562451334 14.853999316634372 74.88120058635272 C 0.0 **** -0.24
23512 H 53.915849997882255 15.289498932495064 74.1162152152996 H 0.0 **** 0.06
23513 H 54.66710502761603 15.555946285259779 75.70841228820399 H 0.0 **** 0.06
23514 H 55.53893547335307 14.641530794220785 74.45446742926103 H 0.0 **** 0.06
23515 H 54.11259629811943 13.92882877407203 75.2460905326802 H 0.0 **** 0.06
23516 C 72.23034540072581 20.381134204616757 84.75587013710066 C 0.0 **** -0.24
23517 H 72.26791697296451 19.464453529953744 85.34538211479983 H 0.0 **** 0.06
23518 H 73.06365904241906 20.39540988024089 84.05318529652396 H 0.0 **** 0.06
23519 H 72.29918283152392 21.243147134740127 85.42009039925688 H 0.0 **** 0.06
23520 H 71.28988225059686 20.420691997801015 84.20614780609566 H 0.0 **** 0.06
23521 C 69.42099824266575 31.271207846091954 81.86638419366741 C 0.0 **** -0.24
23522 H 70.2201990350801 30.701261335782135 82.33928630526395 H 0.0 **** 0.06
23523 H 68.75278912162989 30.590699977439954 81.3383017933213 H 0.0 **** 0.06
23524 H 69.850758755458 31.980697191987872 81.15984395270829 H 0.0 **** 0.06
23525 H 68.86062301773404 31.812122666814787 82.62946688852756 H 0.0 **** 0.06
23526 C 1.579244964645099 90.8483351201053 94.4006848344271 C 0.0 **** -0.24
23527 H 1.8609678374906053 90.27297674118353 93.51826917110714 H 0.0 **** 0.06
23528 H 2.4712167082763585 91.07664861587423 94.98462299998323 H 0.0 **** 0.06
23529 H 0.8860315907578382 90.2659812036093 95.00795375672044 H 0.0 **** 0.06
23530 H 1.0997093063455594 91.77663960161311 94.09094025286578 H 0.0 **** 0.06
23531 C 112.22033203785611 84.69209889918818 64.98854704234881 C 0.0 **** -0.24
23532 H 112.08491244465355 84.98658870015495 66.02919764448342 H 0.0 **** 0.06
23533 H 111.6175930402442 85.33567910897045 64.34831305107042 H 0.0 **** 0.06
23534 H 111.90806795713553 83.65574817341692 64.86142236525609 H 0.0 **** 0.06
23535 H 113.2711198194705 84.7907075857039 64.71837915989227 H 0.0 **** 0.06
23536 C 111.60357155210289 81.56015742983465 61.464259477031476 C 0.0 **** -0.24
23537 H 110.87425851874445 82.28977487687777 61.10962956041473 H 0.0 **** 0.06
23538 H 111.12180461219918 80.87816951929182 62.16463471517119 H 0.0 **** 0.06
23539 H 112.42079459197441 82.07912850820941 61.963905191972515 H 0.0 **** 0.06
23540 H 111.99433736249483 80.99646465689057 60.61713910395872 H 0.0 **** 0.06
23541 C 75.40783117208946 106.37625566696812 15.701062343515293 C 0.0 **** -0.24
23542 H 75.22678770639811 106.80339558056224 14.71466934233722 H 0.0 **** 0.06
23543 H 74.54650386873556 105.77779928069526 16.001499931760247 H 0.0 **** 0.06
23544 H 75.56133263293486 107.17927773657105 16.42230105208501 H 0.0 **** 0.06
23545 H 76.29547587270469 105.74431265846411 15.666445445247124 H 0.0 **** 0.06
23546 C 69.95285918391906 64.46331373018842 20.130549673588177 C 0.0 **** -0.24
23547 H 70.40812320491747 65.38771804555432 20.484307579935773 H 0.0 **** 0.06
23548 H 70.73511073562742 63.76182396684635 19.837908085736785 H 0.0 **** 0.06
23549 H 69.31714078163625 64.67805765874124 19.27087728530546 H 0.0 **** 0.06
23550 H 69.35162678807762 64.02605662895434 20.927872845268098 H 0.0 **** 0.06
23551 C 41.80917286277872 86.22005382511881 27.698444155887017 C 0.0 **** -0.24
23552 H 41.441049741051415 85.26418555459486 27.325726290467173 H 0.0 **** 0.06
23553 H 42.19566338849984 86.09117558907386 28.70910128090989 H 0.0 **** 0.06
23554 H 40.993683022732455 86.94358110717928 27.708932828787283 H 0.0 **** 0.06
23555 H 42.60577093831063 86.5809301589363 27.046916539648947 H 0.0 **** 0.06
23556 C 47.60730524262158 83.53993693745522 88.2409012579244 C 0.0 **** -0.24
23557 H 47.64729083449319 84.54959655342873 87.83104146150222 H 0.0 **** 0.06
23558 H 48.154792192560336 83.50955652127402 89.18387769447381 H 0.0 **** 0.06
23559 H 48.05820075942884 82.84356844043037 87.53445628945241 H 0.0 **** 0.06
23560 H 46.56744171562292 83.26024092733843 88.41488537807447 H 0.0 **** 0.06
23561 C 19.653501030270547 110.32775603236756 92.861496333453 C 0.0 **** -0.24
23562 H 20.418345976078484 110.68337862464621 92.17091528470144 H 0.0 **** 0.06
23563 H 19.523021812581447 109.2522987025102 92.73574590068458 H 0.0 **** 0.06
23564 H 18.71153576283055 110.83503607735999 92.65171832938617 H 0.0 **** 0.06
23565 H 19.96052486988799 110.53920839391311 93.88506536830891 H 0.0 **** 0.06
23566 C 67.13030242421206 1.2066530194711902 20.03694894481319 C 0.0 **** -0.24
23567 H 66.07756241023077 1.3257530365336834 19.781525737066687 H 0.0 **** 0.06
23568 H 67.73348609671706 1.2743195510444139 19.13059405365067 H 0.0 **** 0.06
23569 H 67.28375753213533 0.2341606600246564 20.503814538115336 H 0.0 **** 0.06
23570 H 67.42727481609035 1.9935029948699707 20.730455191536862 H 0.0 **** 0.06
23571 C 82.44447300513264 107.04470397315247 65.16950639588708 C 0.0 **** -0.24
23572 H 83.51146457249894 106.88817137810753 65.00841332284816 H 0.0 **** 0.06
23573 H 81.97523895951767 106.09572229818585 65.43170986619083 H 0.0 **** 0.06
23574 H 81.99266571028997 107.43319638662604 64.25747562227295 H 0.0 **** 0.06
23575 H 82.3001347146789 107.75855087323983 65.97927694332165 H 0.0 **** 0.06
23576 C 79.576938482467 53.85040032859608 101.79723380621672 C 0.0 **** -0.24
23577 H 80.57358079377289 53.85065912489955 101.35507380611963 H 0.0 **** 0.06
23578 H 79.27630294758504 54.875913378436444 102.0162286876542 H 0.0 **** 0.06
23579 H 79.5890255864586 53.26994233828456 102.71940395186851 H 0.0 **** 0.06
23580 H 78.86907051991429 53.40630609079323 101.09701978660559 H 0.0 **** 0.06
23581 C 104.10199171592976 64.43022566141235 75.97321309710708 C 0.0 **** -0.24
23582 H 103.92869030819543 63.597787801032325 76.65553211744117 H 0.0 **** 0.06
23583 H 103.29000558399704 64.48057426142009 75.2472509950075 H 0.0 **** 0.06
23584 H 105.0481068367364 64.2820520408593 75.45254799309845 H 0.0 **** 0.06
23585 H 104.14063840817263 65.36072211078363 76.53968214866211 H 0.0 **** 0.06
23586 C 89.85302728991019 27.139258297552146 3.156495776681794 C 0.0 **** -0.24
23587 H 90.0114070428007 27.511242272718277 2.143966173103138 H 0.0 **** 0.06
23588 H 90.75559261010548 26.635438955600932 3.503300244404528 H 0.0 **** 0.06
23589 H 89.0205055536139 26.436422865237148 3.158994811462037 H 0.0 **** 0.06
23590 H 89.62490435885172 27.973882908446512 3.818769155463059 H 0.0 **** 0.06
23591 C 40.37363397459541 26.873782691915636 2.5356859429580823 C 0.0 **** -0.24
23592 H 41.42840109733001 26.7116144864694 2.3135729463365635 H 0.0 **** 0.06
23593 H 40.257175483201394 27.814192526431924 3.0754573943941352 H 0.0 **** 0.06
23594 H 40.00126082319929 26.053665910474827 3.1492852185820084 H 0.0 **** 0.06
23595 H 39.80935701672527 26.917042147525613 1.603850897450485 H 0.0 **** 0.06
23596 C 10.49222309082565 26.50722729882554 6.80938922626305 C 0.0 **** -0.24
23597 H 11.001668727081885 27.146564720054954 7.531584694633679 H 0.0 **** 0.06
23598 H 9.468118615830516 26.33210839265533 7.1392752563512545 H 0.0 **** 0.06
23599 H 11.017897665706016 25.555005857919554 6.734069944293239 H 0.0 **** 0.06
23600 H 10.483855114280946 26.99505806882388 5.835265290580125 H 0.0 **** 0.06
23601 C 88.19810573921 35.35932587348995 105.61672294194719 C 0.0 **** -0.24
23602 H 88.41081305098317 35.30642909616179 104.54906667211148 H 0.0 **** 0.06
23603 H 88.96293139463506 35.959362008773866 106.11064175243308 H 0.0 **** 0.06
23604 H 88.19880700696388 34.353089252586045 106.03722838867202 H 0.0 **** 0.06
23605 H 87.22056759161853 35.81684533660183 105.77096798811465 H 0.0 **** 0.06
23606 C 78.679820926108 24.11627101261405 10.613605898213095 C 0.0 **** -0.24
23607 H 78.21698025133014 25.096872173671102 10.501828112884724 H 0.0 **** 0.06
23608 H 78.63291718475722 23.58322334276926 9.663159318766734 H 0.0 **** 0.06
23609 H 78.1460984618547 23.54764496913083 11.37575693204624 H 0.0 **** 0.06
23610 H 79.72048813596467 24.237837319109985 10.912720812633093 H 0.0 **** 0.06
23611 C 42.04719692925046 64.44373316249485 67.89405314676185 C 0.0 **** -0.24
23612 H 43.022402681071256 64.35250604338114 67.41687740964414 H 0.0 **** 0.06
23613 H 41.26391131100095 64.35186781016938 67.14117212903108 H 0.0 **** 0.06
23614 H 41.970151344306075 65.41681754019132 68.38055416567227 H 0.0 **** 0.06
23615 H 41.93157631200671 63.65494165549175 68.6375585170718 H 0.0 **** 0.06
23616 C 86.87711687749257 32.326532815004185 11.807325421114516 C 0.0 **** -0.24
23617 H 86.5253222797862 33.08318364471529 12.507684184708832 H 0.0 **** 0.06
23618 H 87.25868596993973 31.468601720875824 12.360335926216777 H 0.0 **** 0.06
23619 H 87.67220608860407 32.74407947809712 11.189797036271827 H 0.0 **** 0.06
23620 H 86.05061958049535 32.010776852330935 11.170045399089208 H 0.0 **** 0.06
23621 C 71.79904288797488 58.13176468702168 39.864771311125054 C 0.0 **** -0.24
23622 H 71.05294558922083 58.064531863113764 40.65767171992712 H 0.0 **** 0.06
23623 H 72.39877210596589 59.03090719077475 40.00749144061365 H 0.0 **** 0.06
23624 H 71.29844976327973 58.177397925062856 38.89827845236806 H 0.0 **** 0.06
23625 H 72.44480254433913 57.25437399591853 39.900175116414715 H 0.0 **** 0.06
23626 C 73.52859843131799 86.05405082234199 70.57669379648507 C 0.0 **** -0.24
23627 H 73.02171746122562 85.14098029082925 70.89091560946554 H 0.0 **** 0.06
23628 H 72.7900558173603 86.78545816480892 70.24972674697028 H 0.0 **** 0.06
23629 H 74.20587316047295 85.82817957424174 69.75281666222998 H 0.0 **** 0.06
23630 H 74.09754396556949 86.4594975923568 71.41340120592378 H 0.0 **** 0.06
23631 C 39.75691873016524 94.36984320073233 84.36176748904697 C 0.0 **** -0.24
23632 H 40.61789184209309 93.8836523845934 83.90285552660524 H 0.0 **** 0.06
23633 H 40.0874808368649 95.25562666308392 84.90586476393722 H 0.0 **** 0.06
23634 H 39.27333433750398 93.6782963390138 85.05094555286098 H 0.0 **** 0.06
23635 H 39.05038687437117 94.66371316902615 83.5855828699616 H 0.0 **** 0.06
23636 C 80.7927275983478 48.5540964703909 4.122175602736547 C 0.0 **** -0.24
23637 H 81.42807337421203 48.1089568771128 3.3566961068868295 H 0.0 **** 0.06
23638 H 80.26102706516537 47.765672739021625 4.654953188906575 H 0.0 **** 0.06
23639 H 80.07295036029294 49.223930925337754 3.6511703494111316 H 0.0 **** 0.06
23640 H 81.40832367252818 49.116562844469 4.823853176221633 H 0.0 **** 0.06
23641 C 89.60873115199442 13.201031739250695 24.9041215324374 C 0.0 **** -0.24
23642 H 89.22824278716931 14.047393209023099 24.33226031005688 H 0.0 **** 0.06
23643 H 89.0291424776753 13.090646008771884 25.820043083352118 H 0.0 **** 0.06
23644 H 90.65538559224265 13.373514995105168 25.154683688466605 H 0.0 **** 0.06
23645 H 89.52410858678468 12.292518655277249 24.30802391012945 H 0.0 **** 0.06
23646 C 62.52540190015793 91.06687638917157 31.100375222296123 C 0.0 **** -0.24
23647 H 63.34530817077774 90.60278147875027 31.648331423980096 H 0.0 **** 0.06
23648 H 62.896767279705955 91.45269217228457 30.15031922494117 H 0.0 **** 0.06
23649 H 62.11234295558759 91.88520790302772 31.688764667962857 H 0.0 **** 0.06
23650 H 61.748389188511254 90.32518710360824 30.912714107217823 H 0.0 **** 0.06
23651 C 83.23993931925384 97.48061287570374 15.164661631562637 C 0.0 **** -0.24
23652 H 83.5253917707135 97.28185726816218 16.197460968853335 H 0.0 **** 0.06
23653 H 82.31666541685613 98.06147462747731 15.149614130250399 H 0.0 **** 0.06
23654 H 83.08409724010318 96.5369215006055 14.64252736871606 H 0.0 **** 0.06
23655 H 84.03166527448047 98.04280896008254 14.6710120816592 H 0.0 **** 0.06
23656 C 12.058136269660253 109.47247273736838 13.505218720030541 C 0.0 **** -0.24
23657 H 12.46991192918992 110.0190460674894 12.656532784477406 H 0.0 **** 0.06
23658 H 11.061845571455166 109.85225103717417 13.731655636741522 H 0.0 **** 0.06
23659 H 12.705460963358831 109.6057664661204 14.371313891061035 H 0.0 **** 0.06
23660 H 11.996170570459526 108.41265293695986 13.257340412964709 H 0.0 **** 0.06
23661 C 4.677172900951703 71.44768003617025 70.21201835010612 C 0.0 **** -0.24
23662 H 4.334380812758951 71.72242996065302 69.21531410251797 H 0.0 **** 0.06
23663 H 4.279102476552424 72.15470968961597 70.9405967309566 H 0.0 **** 0.06
23664 H 5.766438273932849 71.46988365746353 70.24072932188147 H 0.0 **** 0.06
23665 H 4.328184034278749 70.44252513195465 70.45196599030817 H 0.0 **** 0.06
23666 C 90.26040463838947 111.28053398580022 1.3854656457227748 C 0.0 **** -0.24
23667 H 89.85432428120654 110.42573440846219 0.8462386839034366 H 0.0 **** 0.06
23668 H 89.50322578674658 111.6770946387587 2.062742761749945 H 0.0 **** 0.06
23669 H 90.55237034262339 112.05371748001991 0.6748372628757977 H 0.0 **** 0.06
23670 H 91.13286792363897 110.96696513531323 1.9593626969786158 H 0.0 **** 0.06
23671 C 73.6791840071819 54.40621703050624 11.920732288207944 C 0.0 **** -0.24
23672 H 74.1907999217066 54.18382671352544 12.857954341507636 H 0.0 **** 0.06
23673 H 74.15081183497912 55.26617207783386 11.444696654474583 H 0.0 **** 0.06
23674 H 72.63187943640051 54.63124045000902 12.12416785501857 H 0.0 **** 0.06
23675 H 73.74347593119484 53.54299363723027 11.258464744647796 H 0.0 **** 0.06
23676 C 74.70027596539376 53.37000793751787 108.8468514309781 C 0.0 **** -0.24
23677 H 74.68982676507153 52.3101864969434 108.5936426618946 H 0.0 **** 0.06
23678 H 75.69223549881903 53.779259144502305 108.6543542951044 H 0.0 **** 0.06
23679 H 74.45416744595599 53.494285340141346 109.9015552430752 H 0.0 **** 0.06
23680 H 73.96509397526518 53.895865546965524 108.23698041641902 H 0.0 **** 0.06
23681 C 75.48017232079187 18.79475523958945 87.04184053478761 C 0.0 **** -0.24
23682 H 75.98427607888163 19.05621639891848 86.11085454338624 H 0.0 **** 0.06
23683 H 75.97487449457333 17.934381089534554 87.49250168132431 H 0.0 **** 0.06
23684 H 74.43894321605268 18.548905556184934 86.83342683426233 H 0.0 **** 0.06
23685 H 75.52380118831684 19.64093001404501 87.72801922856004 H 0.0 **** 0.06
23686 C 77.5034080803041 49.485341751824095 47.957663102249825 C 0.0 **** -0.24
23687 H 76.57019273789038 48.92214475039559 47.97562609457029 H 0.0 **** 0.06
23688 H 77.72375082868186 49.85353279834711 48.959496321010874 H 0.0 **** 0.06
23689 H 77.40482973343796 50.328122634901796 47.273169050730246 H 0.0 **** 0.06
23690 H 78.3121024590532 48.83679302440586 47.621464778452776 H 0.0 **** 0.06
23691 C 29.68838068589102 70.85550667339902 32.960069845721534 C 0.0 **** -0.24
23692 H 29.766007826022616 69.78780021941702 33.166587102313486 H 0.0 **** 0.06
23693 H 29.50641060595916 71.39301247664028 33.8902089423716 H 0.0 **** 0.06
23694 H 28.863413029488783 71.0321507074056 32.26979551662981 H 0.0 **** 0.06
23695 H 30.617668162824742 71.20737725682477 32.51221913481095 H 0.0 **** 0.06
23696 C 11.520745877450821 8.89291115449305 76.0972579476522 C 0.0 **** -0.24
23697 H 10.581837641534847 9.44311548051678 76.02366444338196 H 0.0 **** 0.06
23698 H 12.34660286409337 9.546686377522462 75.81805453408015 H 0.0 **** 0.06
23699 H 11.491668222076754 8.035443700512644 75.4249615519625 H 0.0 **** 0.06
23700 H 11.65985954614861 8.546692377380396 77.12144413165728 H 0.0 **** 0.06
23701 C 70.34716739285764 3.480487117252366 44.19439057929127 C 0.0 **** -0.24
23702 H 69.28261554657934 3.248585856352122 44.22345171520713 H 0.0 **** 0.06
23703 H 70.67916379696959 3.5332817240931718 43.1569593414689 H 0.0 **** 0.06
23704 H 70.90294912963478 2.6997064790229786 44.714364319096255 H 0.0 **** 0.06
23705 H 70.52390466259328 4.439450234083466 44.68171704157812 H 0.0 **** 0.06
23706 C 73.15187433258384 72.78232310363927 43.11839319460313 C 0.0 **** -0.24
23707 H 73.98027727914334 72.41505224968705 42.51191309091925 H 0.0 **** 0.06
23708 H 73.52170709284206 73.06168177381974 44.10542911426495 H 0.0 **** 0.06
23709 H 72.4010262261601 71.99972645383875 43.219025672039095 H 0.0 **** 0.06
23710 H 72.70774027037018 73.65359536286641 42.63629256832036 H 0.0 **** 0.06
23711 C 61.792650049554254 103.12710064055798 109.8753621994297 C 0.0 **** -0.24
23712 H 62.438921949406335 103.53019638918559 109.09487843470022 H 0.0 **** 0.06
23713 H 60.87129911860109 103.70723746230323 109.91952190660173 H 0.0 **** 0.06
23714 H 62.30544328327801 103.18638089761217 110.83622505775074 H 0.0 **** 0.06
23715 H 61.558397758349315 102.08665145446406 109.65248401046141 H 0.0 **** 0.06
23716 C 105.01995712571062 81.45734250007595 55.42071812085791 C 0.0 **** -0.24
23717 H 105.20803726128335 80.47518344473079 54.98730281365371 H 0.0 **** 0.06
23718 H 104.10157191965726 81.42547051986267 56.00752662365804 H 0.0 **** 0.06
23719 H 104.91597086801798 82.19273989801226 54.6224894856295 H 0.0 **** 0.06
23720 H 105.85380540679373 81.73583389456277 56.064668386558196 H 0.0 **** 0.06
23721 C 27.854665926457614 96.00768478828655 77.57366708042892 C 0.0 **** -0.24
23722 H 27.921546059137768 97.0039172357491 78.01077157945318 H 0.0 **** 0.06
23723 H 28.32630416232695 96.01078419355599 76.58996322631324 H 0.0 **** 0.06
23724 H 26.807327215069847 95.72418922519142 77.47414207116302 H 0.0 **** 0.06
23725 H 28.36565935558579 95.29263508171209 78.21897945746906 H 0.0 **** 0.06
23726 C 36.8687538809682 88.21856022161836 67.49154256774102 C 0.0 **** -0.24
23727 H 36.46003773387082 89.07476964108787 66.95498602173086 H 0.0 **** 0.06
23728 H 36.5583590142366 88.26150065162534 68.53504651043261 H 0.0 **** 0.06
23729 H 37.95685653351825 88.24119567375891 67.434765628023 H 0.0 **** 0.06
23730 H 36.50018509682417 87.29807356374141 67.03960151707446 H 0.0 **** 0.06
23731 C 0.8044734578342094 41.75195777927589 107.52775615114712 C 0.0 **** -0.24
23732 H 1.7450215712754265 41.21509587715161 107.40290843147854 H 0.0 **** 0.06
23733 H -0.014536058716783984 41.03653998986276 107.60893650435109 H 0.0 **** 0.06
23734 H 0.6381326229379098 42.39932004477536 106.66639313413593 H 0.0 **** 0.06
23735 H 0.8490259577792587 42.3570332727857 108.4337418891637 H 0.0 **** 0.06
23736 C 9.093135221925593 1.72586581904622 15.718892816120306 C 0.0 **** -0.24
23737 H 8.331051822803772 2.4871996532883713 15.551089058162237 H 0.0 **** 0.06
23738 H 9.550095847521476 1.880387931258582 16.69713786781681 H 0.0 **** 0.06
23739 H 9.8566657200559 1.7997374610672807 14.945373279871639 H 0.0 **** 0.06
23740 H 8.633503806447237 0.7383919464639916 15.683527932366864 H 0.0 **** 0.06
23741 C 53.06270192216118 61.21436189205221 49.81365986846623 C 0.0 **** -0.24
23742 H 53.67111223152028 62.11680708189462 49.87205471046727 H 0.0 **** 0.06
23743 H 53.3585067760971 60.632464597668616 48.93987070480796 H 0.0 **** 0.06
23744 H 52.01161425387443 61.49000353496038 49.727533261377545 H 0.0 **** 0.06
23745 H 53.20983833320571 60.61810879687707 50.71421831560133 H 0.0 **** 0.06
23746 C 20.471758430550267 20.664809808112523 26.32282949674058 C 0.0 **** -0.24
23747 H 19.86106016661435 21.24155563025559 25.628375565442607 H 0.0 **** 0.06
23748 H 20.133145052105448 20.84915607085557 27.34334208250357 H 0.0 **** 0.06
23749 H 21.51489132161609 20.96480134605983 26.226055515259866 H 0.0 **** 0.06
23750 H 20.375757553040273 19.603007282398067 26.09440082444221 H 0.0 **** 0.06
23751 C 16.52836745887778 31.979597147708176 30.669386341921182 C 0.0 **** -0.24
23752 H 15.924003207207349 31.82762804074423 31.564175525110386 H 0.0 **** 0.06
23753 H 17.06842207096454 32.92274571677143 30.751124760781977 H 0.0 **** 0.06
23754 H 15.87927941169039 32.005770035634 29.79395382452472 H 0.0 **** 0.06
23755 H 17.240377833668244 31.1596627758546 30.568930819038343 H 0.0 **** 0.06
23756 C 32.108084843766676 95.6754050712442 10.591566939249166 C 0.0 **** -0.24
23757 H 32.705227286174704 95.08227698110181 11.28492934104629 H 0.0 **** 0.06
23758 H 32.74069134894944 96.0248777810369 9.775222489523237 H 0.0 **** 0.06
23759 H 31.68610083416621 96.53193734613814 11.117227803036116 H 0.0 **** 0.06
23760 H 31.301375855880053 95.06144930443793 10.190200080294424 H 0.0 **** 0.06
23761 C 8.187762077453584 61.11348740078469 33.82381839024666 C 0.0 **** -0.24
23762 H 7.36267870998978 61.519782076695094 33.23986600258132 H 0.0 **** 0.06
23763 H 9.123909311631053 61.272569358544445 33.28849915421458 H 0.0 **** 0.06
23764 H 8.033325811923419 60.04496326705822 33.97727543400825 H 0.0 **** 0.06
23765 H 8.231134476270086 61.61663490084095 34.78963297018268 H 0.0 **** 0.06
23766 C 86.21489120439497 107.37429880844309 51.14838111486989 C 0.0 **** -0.24
23767 H 87.20815267303098 106.9392762713737 51.040620275694735 H 0.0 **** 0.06
23768 H 86.29139928286088 108.32863620160337 51.67168521135347 H 0.0 **** 0.06
23769 H 85.58070867546891 106.69589814695335 51.71981308828137 H 0.0 **** 0.06
23770 H 85.77989927520815 107.53527587659569 50.16166898334218 H 0.0 **** 0.06
23771 C 46.244266938015926 57.22091783592949 108.11113662842865 C 0.0 **** -0.24
23772 H 45.42475569554608 57.91097874023816 107.90775098281902 H 0.0 **** 0.06
23773 H 45.86459695087183 56.199422864035604 108.12470478869847 H 0.0 **** 0.06
23774 H 46.684145963748506 57.45738178738267 109.08010909667507 H 0.0 **** 0.06
23775 H 47.00159248722207 57.31827660073595 107.33407639799795 H 0.0 **** 0.06
23776 C 60.26532297319068 14.955784966940513 61.96396024362866 C 0.0 **** -0.24
23777 H 60.07799202180604 14.43981885971678 62.905657902586825 H 0.0 **** 0.06
23778 H 59.76270889908977 15.923139396500233 61.973753705209106 H 0.0 **** 0.06
23779 H 59.883018317525114 14.354861476722931 61.13869209813788 H 0.0 **** 0.06
23780 H 61.33838871705382 15.104257090046417 61.83818903279109 H 0.0 **** 0.06
23781 C 46.22471142033919 74.58585106644239 71.20650371767695 C 0.0 **** -0.24
23782 H 45.73517257960887 75.04758510154372 72.06479147447493 H 0.0 **** 0.06
23783 H 45.54391640777445 74.58893798318547 70.35536448012772 H 0.0 **** 0.06
23784 H 46.494425202414476 73.5585994581509 71.45289777745856 H 0.0 **** 0.06
23785 H 47.123656734483205 75.14832609705988 70.95582362770867 H 0.0 **** 0.06
23786 C 103.60621740744196 36.9726139379556 43.66630743100512 C 0.0 **** -0.24
23787 H 104.40083223468079 36.63217701127874 44.32992881579483 H 0.0 **** 0.06
23788 H 103.97179090929612 37.80168963671784 43.05930992939247 H 0.0 **** 0.06
23789 H 102.75543531399029 37.303893327649746 44.26067862333704 H 0.0 **** 0.06
23790 H 103.29930767131677 36.15316465644429 43.01719602444163 H 0.0 **** 0.06
23791 C 108.46316511747212 40.52656382523267 70.7782345712607 C 0.0 **** -0.24
23792 H 107.85705622002402 41.33894702402796 71.18076035162846 H 0.0 **** 0.06
23793 H 107.81202264178349 39.771050449922825 70.33905194277892 H 0.0 **** 0.06
23794 H 109.04950178083428 40.07980165596149 71.58182422403806 H 0.0 **** 0.06
23795 H 109.13380160094218 40.918574759831614 70.01482811539844 H 0.0 **** 0.06
23796 C 12.532262848524354 23.74603520487804 45.77472745609441 C 0.0 **** -0.24
23797 H 13.370649341272724 23.085546960615876 45.999315615344415 H 0.0 **** 0.06
23798 H 12.703253019644308 24.235193532434018 44.81517133610862 H 0.0 **** 0.06
23799 H 12.444105793620793 24.499082440413193 46.55719121093517 H 0.0 **** 0.06
23800 H 11.613854627247846 23.16185325191026 45.727081755493714 H 0.0 **** 0.06
23801 C 16.682387784834305 38.41230384840762 34.11733143985896 C 0.0 **** -0.24
23802 H 17.50980250653106 37.78657609495011 34.449362989176365 H 0.0 **** 0.06
23803 H 17.066914655193216 39.37870243663133 33.78964209801393 H 0.0 **** 0.06
23804 H 15.983583658972975 38.55931992432696 34.94103737981334 H 0.0 **** 0.06
23805 H 16.16826493803947 37.92585921249304 33.288586192269776 H 0.0 **** 0.06
23806 C 30.924826291313593 51.87255893523769 109.05498583318914 C 0.0 **** -0.24
23807 H 30.948246762298083 51.01244033755182 109.72449005029236 H 0.0 **** 0.06
23808 H 31.295811447802095 52.752794206383555 109.58195583845807 H 0.0 **** 0.06
23809 H 29.900697279176597 52.05021105298454 108.72770636883192 H 0.0 **** 0.06
23810 H 31.555021424666023 51.675569403246925 108.18783325339066 H 0.0 **** 0.06
23811 C 27.872849488853547 88.08718354338339 38.491377353741626 C 0.0 **** -0.24
23812 H 26.957401198533162 88.15773313495362 37.9047594899001 H 0.0 **** 0.06
23813 H 27.625262998882782 88.09759897467723 39.552879046455274 H 0.0 **** 0.06
23814 H 28.51941124645812 88.93353347431542 38.25991878820946 H 0.0 **** 0.06
23815 H 28.389634543931784 87.15892335134407 38.247856084288145 H 0.0 **** 0.06
23816 C 87.3392143575727 83.4106643111821 58.334054982801604 C 0.0 **** -0.24
23817 H 87.8316502068133 83.28531469812853 57.370023983352326 H 0.0 **** 0.06
23818 H 86.2729837985656 83.21245507137596 58.226189960191334 H 0.0 **** 0.06
23819 H 87.4855631676042 84.43237542706228 58.68528402997029 H 0.0 **** 0.06
23820 H 87.76809466142947 82.71422202587607 59.0548588687943 H 0.0 **** 0.06
23821 C 58.89945365502957 41.25147609130664 93.09027416088077 C 0.0 **** -0.24
23822 H 58.80056624656168 42.284096053531414 92.75550903951608 H 0.0 **** 0.06
23823 H 58.61125251891945 40.579123434541884 92.2827889623889 H 0.0 **** 0.06
23824 H 58.250022494200444 41.085786726645324 93.95094872055307 H 0.0 **** 0.06
23825 H 59.93355041081836 41.059329223090515 93.37413468922557 H 0.0 **** 0.06
23826 C 92.15603187399873 75.07940228143704 39.74841977531066 C 0.0 **** -0.24
23827 H 91.40550476044103 74.56301581086257 39.14889369010525 H 0.0 **** 0.06
23828 H 92.6040863439971 75.87963716833136 39.15844369978642 H 0.0 **** 0.06
23829 H 92.92912776346714 74.37356644337368 40.04978637221963 H 0.0 **** 0.06
23830 H 91.68326710623501 75.50300426362148 40.634879735965946 H 0.0 **** 0.06
23831 C 102.47199677932358 110.21451717157561 43.27993954994332 C 0.0 **** -0.24
23832 H 102.93330144721457 110.75992940198363 42.455952926275145 H 0.0 **** 0.06
23833 H 101.56986276199095 109.7159736775099 42.92443142446504 H 0.0 **** 0.06
23834 H 102.21337328519326 110.91131770182345 44.076363570144906 H 0.0 **** 0.06
23835 H 103.17333564507479 109.4714591876941 43.65983694500733 H 0.0 **** 0.06
23836 C 100.7315290575533 55.57191358915714 76.42247030571932 C 0.0 **** -0.24
23837 H 100.11023284928967 55.83657606465627 75.56631772630152 H 0.0 **** 0.06
23838 H 100.2041204310818 55.82344964171508 77.34333360686054 H 0.0 **** 0.06
23839 H 101.66808007567371 56.126322767273614 76.37642729169968 H 0.0 **** 0.06
23840 H 100.93948439752427 54.50285972275685 76.40240273239712 H 0.0 **** 0.06
23841 C 51.17215689644701 70.23287923138952 58.17964496277045 C 0.0 **** -0.24
23842 H 51.13875452553694 71.04228355981698 57.45104339248394 H 0.0 **** 0.06
23843 H 50.41350338977517 69.48957999818518 57.93354025825403 H 0.0 **** 0.06
23844 H 50.97908642691203 70.63249463865219 59.17513263318153 H 0.0 **** 0.06
23845 H 52.15679290339864 69.76625682750822 58.16025866951202 H 0.0 **** 0.06
23846 C 26.80501537086254 102.2959524509217 66.42009566319925 C 0.0 **** -0.24
23847 H 26.909064368257404 101.87414385287201 67.42005002912373 H 0.0 **** 0.06
23848 H 25.776485416188642 102.62211278964097 66.26937110851568 H 0.0 **** 0.06
23849 H 27.05965065982042 101.53869476992247 65.67904908865043 H 0.0 **** 0.06
23850 H 27.477264539962285 103.14755506948879 66.31446689915768 H 0.0 **** 0.06
23851 C 4.455102435375068 22.634162181019647 44.722207028722835 C 0.0 **** -0.24
23852 H 3.6692294133869723 23.376090855916658 44.57915861763797 H 0.0 **** 0.06
23853 H 4.18811922649104 21.97790173799868 45.54999597234186 H 0.0 **** 0.06
23854 H 5.39463257262139 23.13934947665433 44.94656459287273 H 0.0 **** 0.06
23855 H 4.567846844971257 22.04477503789535 43.811881855073324 H 0.0 **** 0.06
23856 C 3.073596973824209 47.761338218043434 3.3907861065989096 C 0.0 **** -0.24
23857 H 4.1078769119280025 48.045732943901356 3.1967421717438356 H 0.0 **** 0.06
23858 H 3.0523847461448668 46.80166993982766 3.9060890869269542 H 0.0 **** 0.06
23859 H 2.5362934891007 47.67993219318558 2.446029840747144 H 0.0 **** 0.06
23860 H 2.6003575408587665 48.52058610800353 4.014456326104494 H 0.0 **** 0.06
23861 C 35.776560746225286 53.04398070823734 110.2042976843268 C 0.0 **** -0.24
23862 H 35.78478788703883 52.429673581366025 111.10512369670634 H 0.0 **** 0.06
23863 H 36.3308001062651 53.96485394864901 110.3879621692721 H 0.0 **** 0.06
23864 H 34.74714541864188 53.28526995735621 109.93975097788096 H 0.0 **** 0.06
23865 H 36.24299790689446 52.494881437850495 109.38640114324907 H 0.0 **** 0.06
23866 C 2.3720216466393964 59.152302097673385 93.13834020717448 C 0.0 **** -0.24
23867 H 1.696315888494155 58.31712948463897 92.95731326385797 H 0.0 **** 0.06
23868 H 2.6771841261337386 59.152134937563034 94.18535562946084 H 0.0 **** 0.06
23869 H 1.8625099227080284 60.0884979789227 92.90830430852935 H 0.0 **** 0.06
23870 H 3.251196547509764 59.05239674926267 92.5029547162853 H 0.0 **** 0.06
23871 C 81.63198058683867 54.42011017043325 71.4242933267983 C 0.0 **** -0.24
23872 H 81.83026775684118 53.57513379562408 72.0825284119789 H 0.0 **** 0.06
23873 H 81.89531446520613 54.153709940801775 70.40075457963394 H 0.0 **** 0.06
23874 H 82.22745280196861 55.27517896069156 71.74192756711705 H 0.0 **** 0.06
23875 H 80.57327425000773 54.67644875291961 71.47259300072318 H 0.0 **** 0.06
23876 C 76.8555275970408 86.94951510361372 16.933126979125802 C 0.0 **** -0.24
23877 H 77.68950138431501 86.82228157844753 16.243159065173785 H 0.0 **** 0.06
23878 H 76.54182419437808 85.97416300707698 17.307595879499814 H 0.0 **** 0.06
23879 H 76.02434144849565 87.42469786507368 16.413850349454748 H 0.0 **** 0.06
23880 H 77.1685466406202 87.57632617101439 17.769698854473802 H 0.0 **** 0.06
23881 C 71.13406087194426 56.02824728331129 91.84707577155405 C 0.0 **** -0.24
23882 H 71.36954143773937 57.05145234390055 91.55621732799193 H 0.0 **** 0.06
23883 H 72.04291100452883 55.526521690548854 92.17789929478485 H 0.0 **** 0.06
23884 H 70.71528103928972 55.49573527936885 90.99307587920333 H 0.0 **** 0.06
23885 H 70.40785311760715 56.03963628377073 92.6590030467772 H 0.0 **** 0.06
23886 C 27.697292325366732 111.77592030237682 69.89835850158775 C 0.0 **** -0.24
23887 H 28.023429345004615 110.7961535337628 70.24742026700409 H 0.0 **** 0.06
23888 H 26.655619244362327 111.93443094462077 70.18084755698484 H 0.0 **** 0.06
23889 H 27.791478749130533 111.8251794540007 68.81373192016196 H 0.0 **** 0.06
23890 H 28.317971041808647 112.54823227945363 70.35263873377502 H 0.0 **** 0.06
23891 C 98.0654999058419 64.23732230258173 30.87968391196617 C 0.0 **** -0.24
23892 H 98.76493264982025 64.39529209746107 30.059164118681707 H 0.0 **** 0.06
23893 H 98.62117108977881 64.08396004750259 31.805602390872053 H 0.0 **** 0.06
23894 H 97.45527498743164 63.357936485253425 30.67226752471103 H 0.0 **** 0.06
23895 H 97.4221899409007 65.11145025360835 30.982041238053228 H 0.0 **** 0.06
23896 C 36.50159618579933 97.52523232382768 43.103894847063465 C 0.0 **** -0.24
23897 H 35.96521198359639 98.41862211666898 42.78589014312491 H 0.0 **** 0.06
23898 H 36.36899704473686 97.38521506437684 44.177122723967294 H 0.0 **** 0.06
23899 H 37.56211380629661 97.63940366241923 42.88031342980344 H 0.0 **** 0.06
23900 H 36.109607070663756 96.65857748188799 42.57220013109652 H 0.0 **** 0.06
23901 C 74.60080760988629 87.17157513698601 57.05823905994356 C 0.0 **** -0.24
23902 H 74.91058156935566 86.47820736509937 56.27560908319123 H 0.0 **** 0.06
23903 H 73.99511500283486 86.64195721181656 57.79309800397141 H 0.0 **** 0.06
23904 H 74.01523809956183 87.97799239071264 56.616885522533664 H 0.0 **** 0.06
23905 H 75.48221574751528 87.58724363264787 57.54508678329046 H 0.0 **** 0.06
23906 C 9.221256519018425 18.872018400722027 92.56925101228276 C 0.0 **** -0.24
23907 H 10.29446510446337 19.04842257690595 92.49642729433901 H 0.0 **** 0.06
23908 H 9.009335947406413 18.28927530595486 93.46503250333166 H 0.0 **** 0.06
23909 H 8.883916976956243 18.323296844536202 91.6897425726828 H 0.0 **** 0.06
23910 H 8.699374186896307 19.827956397555113 92.62381131888719 H 0.0 **** 0.06
23911 C 58.28576033764665 26.31793751879661 45.78785241371577 C 0.0 **** -0.24
23912 H 59.18222337853794 26.188237603074242 45.179842172269595 H 0.0 **** 0.06
23913 H 57.7587974724199 27.21655482488478 45.468400668765 H 0.0 **** 0.06
23914 H 58.568615486436215 26.413855059936566 46.835070181568895 H 0.0 **** 0.06
23915 H 57.63581951271891 25.451341464138295 45.66462246639189 H 0.0 **** 0.06
23916 C 62.21770569328271 15.26504118837434 85.77682733187177 C 0.0 **** -0.24
23917 H 62.27944628211702 15.399681180668438 86.85699194687226 H 0.0 **** 0.06
23918 H 61.66322693125272 14.353169372992753 85.55520720019277 H 0.0 **** 0.06
23919 H 63.2234195989507 15.188696085131369 85.36255278425952 H 0.0 **** 0.06
23920 H 61.705467905623834 16.118960200836824 85.33313917898636 H 0.0 **** 0.06
23921 C 2.0167882126875476 62.35605704137536 15.273567669486127 C 0.0 **** -0.24
23922 H 2.8074137165165514 62.67037338591167 14.591074425959718 H 0.0 **** 0.06
23923 H 1.4269124887549385 61.56697821011604 14.806165623510879 H 0.0 **** 0.06
23924 H 1.3729370166241672 63.205840071335565 15.498895856624728 H 0.0 **** 0.06
23925 H 2.4604024470149266 61.980523581674795 16.195400839146203 H 0.0 **** 0.06
23926 C 77.13759774750886 99.86934245760384 86.05298588660611 C 0.0 **** -0.24
23927 H 77.6449163931726 99.33487706191366 86.85659522117044 H 0.0 **** 0.06
23928 H 77.05338676939024 99.21991630548789 85.18111512498268 H 0.0 **** 0.06
23929 H 77.71197944960807 100.75794471014447 85.79032620114398 H 0.0 **** 0.06
23930 H 76.1422895459599 100.16382528047521 86.38467670579703 H 0.0 **** 0.06
23931 C 34.674610965353764 44.44680960715664 86.89228135862567 C 0.0 **** -0.24
23932 H 33.98862407361676 45.11244282283576 87.416632218138 H 0.0 **** 0.06
23933 H 34.11728204499386 43.84411460983894 86.1741687726632 H 0.0 **** 0.06
23934 H 35.165569874038596 43.79205210734048 87.6124371552626 H 0.0 **** 0.06
23935 H 35.42491154473345 45.038177822106775 86.36802471235472 H 0.0 **** 0.06
23936 C 1.6781787586085848 31.05594549455924 41.21280313700006 C 0.0 **** -0.24
23937 H 1.8827458353716189 31.817308652753468 41.96488011951867 H 0.0 **** 0.06
23938 H 0.6984077499846215 30.616474482810418 41.39830342221356 H 0.0 **** 0.06
23939 H 2.441334407957692 30.27866543024328 41.26604428735509 H 0.0 **** 0.06
23940 H 1.6913149632194635 31.510590779505037 40.22146990312698 H 0.0 **** 0.06
23941 C 11.909727205419493 0.7250551241059568 51.15894157235462 C 0.0 **** -0.24
23942 H 11.952611309781204 1.0580714451681388 50.12207443627511 H 0.0 **** 0.06
23943 H 11.054843779485214 1.1857877688899299 51.65374369237588 H 0.0 **** 0.06
23944 H 12.82716382518064 1.016149825830687 51.670697691430775 H 0.0 **** 0.06
23945 H 11.805968380863135 -0.3603630539693361 51.187889239170744 H 0.0 **** 0.06
23946 C 57.650179213310025 76.7621099992217 66.17886109913155 C 0.0 **** -0.24
23947 H 57.34491998526673 76.9650066190292 67.20616010395358 H 0.0 **** 0.06
23948 H 58.33142559231507 75.91091168657834 66.16514125076395 H 0.0 **** 0.06
23949 H 58.15366380485139 77.63792404685586 65.77070260641764 H 0.0 **** 0.06
23950 H 56.771370033189015 76.53417179596795 65.57736224259739 H 0.0 **** 0.06
23951 C 102.53443108802432 59.218752540080665 14.610680028875436 C 0.0 **** -0.24
23952 H 103.40063292131808 58.95996941376922 14.001982197958057 H 0.0 **** 0.06
23953 H 102.1990879430956 58.337138129363915 15.157204879074584 H 0.0 **** 0.06
23954 H 101.730145929781 59.574393333982734 13.965468832785064 H 0.0 **** 0.06
23955 H 102.80751856947165 60.00314313213297 15.316127392030353 H 0.0 **** 0.06
23956 C 15.998665155546803 108.77288162479346 107.87928430206111 C 0.0 **** -0.24
23957 H 16.598118109358097 108.4234474146275 108.72073623610464 H 0.0 **** 0.06
23958 H 16.145632430441708 109.84555597394609 107.74942743226296 H 0.0 **** 0.06
23959 H 14.946229706552856 108.57059257206652 108.07468152878062 H 0.0 **** 0.06
23960 H 16.3071643674605 108.25077961143245 106.97387495760364 H 0.0 **** 0.06
23961 C 29.79940108188822 100.29158087389519 85.98415558062578 C 0.0 **** -0.24
23962 H 28.99778929917767 100.73708726382563 85.39604425640078 H 0.0 **** 0.06
23963 H 29.95511566248058 100.87875961445354 86.88890718040676 H 0.0 **** 0.06
23964 H 30.71736203440605 100.27965747524678 85.39561588556188 H 0.0 **** 0.06
23965 H 29.52804206520716 99.27127226503634 86.25491563917382 H 0.0 **** 0.06
23966 C 33.80406256837648 32.509481716261206 75.21685859824845 C 0.0 **** -0.24
23967 H 33.845965728107785 33.133062400624425 76.10957950322916 H 0.0 **** 0.06
23968 H 34.673060030533634 31.851193765063186 75.19309248083036 H 0.0 **** 0.06
23969 H 33.80297369294766 33.14274181333727 74.32953573243813 H 0.0 **** 0.06
23970 H 32.89426988575673 31.909635991647605 75.2357995413665 H 0.0 **** 0.06
23971 C 21.44851539622502 29.999595516146336 61.348853910277 C 0.0 **** -0.24
23972 H 21.560350923600822 30.316811974502848 60.31164227774889 H 0.0 **** 0.06
23973 H 22.40680970968674 29.6392064381282 61.723384459667756 H 0.0 **** 0.06
23974 H 20.71135933429497 29.199302591643104 61.40641703044557 H 0.0 **** 0.06
23975 H 21.11570708841117 30.844460757318316 61.952235857340696 H 0.0 **** 0.06
23976 C 100.0349750435675 66.32104488803373 42.90707966949691 C 0.0 **** -0.24
23977 H 99.57602229698344 65.33915042511964 42.793365087561085 H 0.0 **** 0.06
23978 H 99.31404714308809 67.09296443409832 42.63644410591979 H 0.0 **** 0.06
23979 H 100.90620582090037 66.39325308322691 42.25550899909999 H 0.0 **** 0.06
23980 H 100.34483244178435 66.4594192080279 43.943416192829346 H 0.0 **** 0.06
23981 C 57.409550177277616 11.093328013970133 17.37469709806433 C 0.0 **** -0.24
23982 H 57.364992232713035 12.166507677520777 17.186183296458893 H 0.0 **** 0.06
23983 H 57.68281369192936 10.573543917899194 16.455993675869564 H 0.0 **** 0.06
23984 H 56.4350110282426 10.744006358189978 17.715255751617633 H 0.0 **** 0.06
23985 H 58.15640717962739 10.891622218424228 18.142887053610934 H 0.0 **** 0.06
23986 C 21.754532279045662 12.368205189830608 21.267383940974387 C 0.0 **** -0.24
23987 H 22.513140676693013 13.146773621629677 21.185177473089432 H 0.0 **** 0.06
23988 H 22.07296323424295 11.625639149548931 21.999156312086452 H 0.0 **** 0.06
23989 H 21.61990350536307 11.888208580389733 20.297955888032728 H 0.0 **** 0.06
23990 H 20.812121699883363 12.812199407754129 21.587246090688907 H 0.0 **** 0.06
23991 C 30.98237152623787 3.3173809974042587 13.309796313246888 C 0.0 **** -0.24
23992 H 30.8260941605227 4.341207136946476 12.968241224396774 H 0.0 **** 0.06
23993 H 30.255132998068518 2.660251293238156 12.832209563608654 H 0.0 **** 0.06
23994 H 30.85702136696662 3.272719378675749 14.391701149198802 H 0.0 **** 0.06
23995 H 31.99049352349158 2.997453816475664 13.047100666421532 H 0.0 **** 0.06
23996 C 57.936816666095666 8.03073958610969 67.00036619532437 C 0.0 **** -0.24
23997 H 57.07803621080268 8.136899367964247 66.33647938238232 H 0.0 **** 0.06
23998 H 57.730674702912836 7.256491691406723 67.73850575166404 H 0.0 **** 0.06
23999 H 58.12280914987133 8.977496044369218 67.50761110868905 H 0.0 **** 0.06
24000 H 58.81353317197639 7.752927786656187 66.41597581389226 H 0.0 **** 0.06
24001 C 48.172969247842815 76.25598631688587 39.24169693703459 C 0.0 **** -0.24
24002 H 48.807190383489655 76.3435266528661 38.359640464795746 H 0.0 **** 0.06
24003 H 48.5949946261004 76.84859221989367 40.052766081941854 H 0.0 **** 0.06
24004 H 48.11695690925629 75.21033146161432 39.5463409939872 H 0.0 **** 0.06
24005 H 47.17253932030931 76.62037205525448 39.00720298599322 H 0.0 **** 0.06
24006 C 81.96216410168483 17.049536958830004 7.947259352374772 C 0.0 **** -0.24
24007 H 81.67843857942239 17.08555877914918 6.894653186143898 H 0.0 **** 0.06
24008 H 82.91425809560951 16.52954460206564 8.048241068100538 H 0.0 **** 0.06
24009 H 81.19511671018927 16.519080412228504 8.511800370298147 H 0.0 **** 0.06
24010 H 82.05897725641921 18.065512078001746 8.331492644804825 H 0.0 **** 0.06
24011 C 27.74011597162422 4.192068072955692 66.07424904540025 C 0.0 **** -0.24
24012 H 26.736181902126674 4.1464759969631615 65.6536648498369 H 0.0 **** 0.06
24013 H 28.237502503714566 5.099177757909828 65.7285611228109 H 0.0 **** 0.06
24014 H 28.309075951137316 3.3198622331948684 65.75167823512805 H 0.0 **** 0.06
24015 H 27.67826062608723 4.203649984760133 67.16214799759607 H 0.0 **** 0.06
24016 C 1.6907441107963734 68.09558422720787 48.10492751418377 C 0.0 **** -0.24
24017 H 2.159790099358844 69.07887514062026 48.06726798448193 H 0.0 **** 0.06
24018 H 2.3740396031608952 67.3521176807078 47.69343850752471 H 0.0 **** 0.06
24019 H 0.771699733500725 68.1080361591464 47.52075403345052 H 0.0 **** 0.06
24020 H 1.4595514993645509 67.84352258928115 49.14037686382902 H 0.0 **** 0.06
24021 C 1.7431798534828236 14.138032721112953 22.198987500699445 C 0.0 **** -0.24
24022 H 2.3400294173622687 14.223810759411482 21.29059928356051 H 0.0 **** 0.06
24023 H 0.6969117404162555 14.341115273338065 21.96585014773089 H 0.0 **** 0.06
24024 H 2.098156907439236 14.859152308963267 22.934919014747436 H 0.0 **** 0.06
24025 H 1.837025926532121 13.13064054740098 22.601945556298546 H 0.0 **** 0.06
24026 C 17.746401058453028 48.91155659074511 107.18906233521913 C 0.0 **** -0.24
24027 H 18.339845114652327 49.09204988633235 106.29344933700807 H 0.0 **** 0.06
24028 H 16.855702050013917 49.5395296896983 107.16712020103775 H 0.0 **** 0.06
24029 H 18.33858625299287 49.15241291577922 108.07220181780777 H 0.0 **** 0.06
24030 H 17.45137657509083 47.8631312889828 107.22390904953816 H 0.0 **** 0.06
24031 C 22.462061850314953 86.55201690019084 98.05170438862359 C 0.0 **** -0.24
24032 H 22.82058185319018 85.55311697176975 98.30013894274893 H 0.0 **** 0.06
24033 H 23.26684018752639 87.12256499679569 97.58864817234755 H 0.0 **** 0.06
24034 H 22.13565223150789 87.05647638626502 98.96232060792747 H 0.0 **** 0.06
24035 H 21.62384009152837 86.4755287829862 97.35903834410502 H 0.0 **** 0.06
24036 C 89.14330821604074 81.56105129593112 97.27111138606736 C 0.0 **** -0.24
24037 H 89.59379169684595 81.98740189942487 98.16820796111668 H 0.0 **** 0.06
24038 H 89.12841416838569 82.31202801283234 96.48079147178584 H 0.0 **** 0.06
24039 H 88.1236064804053 81.2459803806671 97.49248002950009 H 0.0 **** 0.06
24040 H 89.72712519410229 80.7004608766515 96.94630345639746 H 0.0 **** 0.06
24041 C 104.03670059932196 83.30786410952166 63.835535394439056 C 0.0 **** -0.24
24042 H 104.2130102351521 82.6585217805926 64.69302815676815 H 0.0 **** 0.06
24043 H 104.43442728968623 84.30133882999527 64.04476946849846 H 0.0 **** 0.06
24044 H 102.96482756316232 83.37709839415433 63.64814479005913 H 0.0 **** 0.06
24045 H 104.53351521590983 82.89427404842186 62.95841405851055 H 0.0 **** 0.06
24046 C 54.06319785025647 110.4692081419083 8.71332440639938 C 0.0 **** -0.24
24047 H 55.039355647185374 110.05173288251433 8.468598654015523 H 0.0 **** 0.06
24048 H 53.96821029902006 110.55983657395308 9.79618743560357 H 0.0 **** 0.06
24049 H 53.28072074621721 109.81255626862392 8.334227801115958 H 0.0 **** 0.06
24050 H 53.96460482860249 111.45440239854526 8.255738158955822 H 0.0 **** 0.06
24051 C 53.76198085439472 4.687689446669765 35.33543048497867 C 0.0 **** -0.24
24052 H 53.80764416885347 5.1142832163941705 34.333762392464365 H 0.0 **** 0.06
24053 H 54.70002985742758 4.883386773951031 35.855776585416265 H 0.0 **** 0.06
24054 H 53.60213259523948 3.612012368184935 35.26542538311003 H 0.0 **** 0.06
24055 H 52.93860615385398 5.142402293997122 35.88676591052953 H 0.0 **** 0.06
24056 C 65.86850944306022 19.109716296131353 30.532930421920234 C 0.0 **** -0.24
24057 H 66.16529939247226 18.366333395258636 29.79339614240606 H 0.0 **** 0.06
24058 H 65.68389039721129 18.617133339892092 31.48858063819516 H 0.0 **** 0.06
24059 H 64.95881582549313 19.6097711339024 30.199289721347213 H 0.0 **** 0.06
24060 H 66.6645055382244 19.844025840154302 30.65013115588536 H 0.0 **** 0.06
24061 C 81.87633379843572 41.184291874169084 74.70843975895204 C 0.0 **** -0.24
24062 H 81.76200298791838 40.208984903719944 75.18277954899179 H 0.0 **** 0.06
24063 H 80.90373316032031 41.67176868795376 74.64322680408839 H 0.0 **** 0.06
24064 H 82.28769308799963 41.05507451014517 73.70740839564161 H 0.0 **** 0.06
24065 H 82.5522879491968 41.79915685520768 75.3033594814674 H 0.0 **** 0.06
24066 C 23.57007500168247 18.95331893101694 42.99755927683546 C 0.0 **** -0.24
24067 H 24.52048992053426 18.44430861388696 42.836906316355375 H 0.0 **** 0.06
24068 H 23.455528279950826 19.750412257505392 42.26312435520179 H 0.0 **** 0.06
24069 H 23.550791161820996 19.377568821892552 44.00148236156806 H 0.0 **** 0.06
24070 H 22.753395613562333 18.23885109689555 42.889921307182576 H 0.0 **** 0.06
24071 C 108.92242871887281 68.3322229015547 53.903980933654196 C 0.0 **** -0.24
24072 H 108.4165063336858 67.9895870914803 53.001484054091065 H 0.0 **** 0.06
24073 H 108.71625617362999 69.39213125074468 54.054873595654726 H 0.0 **** 0.06
24074 H 109.99644726313467 68.18228732652074 53.79729992084671 H 0.0 **** 0.06
24075 H 108.55914034028947 67.7652996901549 54.760543808222195 H 0.0 **** 0.06
24076 C 32.8624007644284 25.531436747047934 107.74424006480166 C 0.0 **** -0.24
24077 H 32.793450974436894 26.481367654152223 108.27364496429817 H 0.0 **** 0.06
24078 H 33.882853030276976 25.15151492730621 107.81115859261155 H 0.0 **** 0.06
24079 H 32.59732935571549 25.67874223945273 106.69693367689001 H 0.0 **** 0.06
24080 H 32.177266903733084 24.81358563086809 108.19505127689132 H 0.0 **** 0.06
24081 C 65.1028702980156 34.55269484717749 27.220326811926668 C 0.0 **** -0.24
24082 H 65.82577258509747 34.82699464561128 27.989594241745408 H 0.0 **** 0.06
24083 H 65.61090645230007 34.46570023632407 26.25910015826514 H 0.0 **** 0.06
24084 H 64.33246141301692 35.321116117893524 27.156637819389914 H 0.0 **** 0.06
24085 H 64.64357934813233 33.598510134720215 27.477018655329402 H 0.0 **** 0.06
24086 C 27.440757168173178 6.019049064603337 35.62472577794986 C 0.0 **** -0.24
24087 H 28.13300332022152 5.827494747184815 34.80377529363372 H 0.0 **** 0.06
24088 H 26.44277244440559 5.680559835617942 35.34426725115836 H 0.0 **** 0.06
24089 H 27.415694081852592 7.087052002967852 35.83709069045304 H 0.0 **** 0.06
24090 H 27.77176377164986 5.479496384712064 36.51221433338358 H 0.0 **** 0.06
24091 C 55.08017687975041 97.45907652794943 12.171167218817956 C 0.0 **** -0.24
24092 H 54.39080857053386 98.25758069112808 11.899088636221492 H 0.0 **** 0.06
24093 H 56.07577377224254 97.69451346574496 11.794569706218482 H 0.0 **** 0.06
24094 H 54.73899203661142 96.52043729847202 11.733279389058723 H 0.0 **** 0.06
24095 H 55.11436691193336 97.36229926207454 13.256235687257515 H 0.0 **** 0.06
24096 C 34.35456189054713 42.735962846398365 10.328049267359063 C 0.0 **** -0.24
24097 H 35.035739651276515 43.362447153627954 9.750375674980617 H 0.0 **** 0.06
24098 H 33.74302735240573 42.14169430794345 9.64800229314774 H 0.0 **** 0.06
24099 H 33.710814436340144 43.36826730608021 10.938568398909666 H 0.0 **** 0.06
24100 H 34.931185976593554 42.07240932066816 10.97265905936041 H 0.0 **** 0.06
24101 C 99.48721476940955 45.8938302463344 22.337605457919167 C 0.0 **** -0.24
24102 H 99.82500789279845 46.74503946271531 22.928569969525384 H 0.0 **** 0.06
24103 H 100.34773070352634 45.405147716734376 21.880240042097626 H 0.0 **** 0.06
24104 H 98.8079102081881 46.23866584320007 21.558294165380644 H 0.0 **** 0.06
24105 H 98.96905789794289 45.184859628021314 22.98415133246607 H 0.0 **** 0.06
24106 C 58.528725326522725 30.497167096660547 0.23262150233020407 C 0.0 **** -0.24
24107 H 58.29128040690606 30.682460064458922 -0.8146629780299861 H 0.0 **** 0.06
24108 H 57.60577071030544 30.350228792852477 0.7943664190985658 H 0.0 **** 0.06
24109 H 59.070172396565304 31.35118658554663 0.6396278614769528 H 0.0 **** 0.06
24110 H 59.14867990159015 29.602901204448585 0.3118007585555347 H 0.0 **** 0.06
24111 C 82.72844350089122 30.92507012543512 34.30450164355624 C 0.0 **** -0.24
24112 H 82.54483047530539 29.899830686696205 33.981825663924724 H 0.0 **** 0.06
24113 H 83.53248982394649 31.35511215256558 33.708027248239254 H 0.0 **** 0.06
24114 H 83.0140080836378 30.928701095502433 35.35618650434654 H 0.0 **** 0.06
24115 H 81.82119108649033 31.514799522070184 34.17173979542775 H 0.0 **** 0.06
24116 C 83.08274408934605 13.599785308959227 86.83654261532533 C 0.0 **** -0.24
24117 H 83.40910982532904 14.30892497823248 87.5964555413517 H 0.0 **** 0.06
24118 H 82.58384653847162 14.1369638679956 86.02904221325275 H 0.0 **** 0.06
24119 H 82.390206717768 12.884943706177989 87.280116532205 H 0.0 **** 0.06
24120 H 83.94856512760586 13.06883875183544 86.43948199582027 H 0.0 **** 0.06
24121 C 82.72123145368997 69.07919455949525 81.29443111808268 C 0.0 **** -0.24
24122 H 82.7351178117496 70.08885702725823 81.70502491417975 H 0.0 **** 0.06
24123 H 81.70893374228851 68.83106613439514 80.9752461826493 H 0.0 **** 0.06
24124 H 83.04606881118835 68.37166237385676 82.05679864302186 H 0.0 **** 0.06
24125 H 83.39558617198648 69.02674967244229 80.4392523771115 H 0.0 **** 0.06
24126 C 24.946634595954862 59.78844621540329 48.45041629819261 C 0.0 **** -0.24
24127 H 25.339018547353476 60.04901058634207 47.467206524563835 H 0.0 **** 0.06
24128 H 25.449749581519143 58.89425725363588 48.81733285223991 H 0.0 **** 0.06
24129 H 23.8765636335674 59.59875542553902 48.375330691859205 H 0.0 **** 0.06
24130 H 25.122140627072923 60.61378821986326 49.1416512036767 H 0.0 **** 0.06
24131 C 47.62511157061121 12.836949749518752 34.258480656603744 C 0.0 **** -0.24
24132 H 47.63137869472385 11.779775322423887 34.52357372299828 H 0.0 **** 0.06
24133 H 48.51900873864534 13.071594044858486 33.68027367280062 H 0.0 **** 0.06
24134 H 47.609960497088906 13.438650084511096 35.16660976492745 H 0.0 **** 0.06
24135 H 46.738199452822386 13.055370983730882 33.66269502708559 H 0.0 **** 0.06
24136 C 34.26992749818852 104.55041383200324 93.78834586307497 C 0.0 **** -0.24
24137 H 34.41689182180403 105.17913952567221 92.90959223655332 H 0.0 **** 0.06
24138 H 35.10748213404143 104.68426260460876 94.47433364353276 H 0.0 **** 0.06
24139 H 34.21352195498018 103.50595987545418 93.48261607235284 H 0.0 **** 0.06
24140 H 33.343608227345015 104.83395715907236 94.28672735220087 H 0.0 **** 0.06
24141 C 92.80388786933307 65.96793635991827 22.87326793858975 C 0.0 **** -0.24
24142 H 92.91736343970416 67.03363266882917 22.67511888511524 H 0.0 **** 0.06
24143 H 92.73591552801813 65.80283142642321 23.948012301862917 H 0.0 **** 0.06
24144 H 93.66658663543876 65.43180261593517 22.476197531506216 H 0.0 **** 0.06
24145 H 91.89660125768393 65.60356912639764 22.390887442809117 H 0.0 **** 0.06
24146 C 8.169812870474397 38.85410269339418 30.547143421207373 C 0.0 **** -0.24
24147 H 7.868460050210809 37.81125328348779 30.448909161530082 H 0.0 **** 0.06
24148 H 9.248325246644217 38.90745503910429 30.700880405355512 H 0.0 **** 0.06
24149 H 7.658559788009402 39.30207253907456 31.398760499294184 H 0.0 **** 0.06
24150 H 7.905898456116592 39.39588074027564 29.638620363120324 H 0.0 **** 0.06
24151 C 106.31744475749608 4.173165349541051 56.61267122237314 C 0.0 **** -0.24
24152 H 105.64967125272335 5.002262243890627 56.84633393983998 H 0.0 **** 0.06
24153 H 105.95276457704455 3.265618637318809 57.09463052257118 H 0.0 **** 0.06
24154 H 107.31940785438951 4.400816239434036 56.97626083441307 H 0.0 **** 0.06
24155 H 106.3483425366448 4.024771124110401 55.53303151447159 H 0.0 **** 0.06
24156 C 82.55208545279237 31.06621946774507 41.20767197380738 C 0.0 **** -0.24
24157 H 82.63216467011944 30.59228006694184 42.18539283824103 H 0.0 **** 0.06
24158 H 82.2993836249367 30.31488901671463 40.459040710052534 H 0.0 **** 0.06
24159 H 83.50363614028527 31.530670940486857 40.9503735739882 H 0.0 **** 0.06
24160 H 81.77237126797417 31.827655141307133 41.23584854403626 H 0.0 **** 0.06
24161 C 79.51641624863615 96.77668927598438 65.52337842156871 C 0.0 **** -0.24
24162 H 79.93928580912299 97.5600817391246 64.89528853009256 H 0.0 **** 0.06
24163 H 80.23276101849774 96.50680538088787 66.29965560879498 H 0.0 **** 0.06
24164 H 79.29353661193997 95.90180270600445 64.9132681827908 H 0.0 **** 0.06
24165 H 78.598571311354 97.13866661036246 65.98683767459775 H 0.0 **** 0.06
24166 C 46.76531650637463 93.43888106780648 22.735567996291703 C 0.0 **** -0.24
24167 H 47.52836056707065 93.40739716651464 23.51306004993671 H 0.0 **** 0.06
24168 H 46.818515459479045 94.3936560718897 22.21139720941836 H 0.0 **** 0.06
24169 H 45.77996298243653 93.3267930145004 23.187590201769883 H 0.0 **** 0.06
24170 H 46.934456142777776 92.62638231307778 22.028145909136526 H 0.0 **** 0.06
24171 C 84.7468189985824 14.600865435586002 4.119476082880084 C 0.0 **** -0.24
24172 H 84.88972844200305 15.679928943427399 4.1803386295214295 H 0.0 **** 0.06
24173 H 83.78261149216075 14.33705123152069 4.554294843610407 H 0.0 **** 0.06
24174 H 85.54386053515157 14.098101715861759 4.668513330641474 H 0.0 **** 0.06
24175 H 84.77269289951744 14.290466078333054 3.0757735057229496 H 0.0 **** 0.06
24176 C 56.016479996212894 106.80492191340916 9.903547512196724 C 0.0 **** -0.24
24177 H 57.02443001215656 106.68102199431877 9.50765110902762 H 0.0 **** 0.06
24178 H 55.946770583288554 107.75749346012105 10.428756456809083 H 0.0 **** 0.06
24179 H 55.794310461131346 105.99176972899207 10.593887687814345 H 0.0 **** 0.06
24180 H 55.29998811259654 106.78994549480896 9.081766809689071 H 0.0 **** 0.06
24181 C 39.20499396002165 105.5430303012478 53.14153410687044 C 0.0 **** -0.24
24182 H 39.43696174054696 106.60029841950049 53.27063668390929 H 0.0 **** 0.06
24183 H 39.938368626166834 105.08803690271682 52.47572407440185 H 0.0 **** 0.06
24184 H 38.20945044513957 105.44013261724797 52.710226160400396 H 0.0 **** 0.06
24185 H 39.23427523710404 105.04371890639953 54.109936461322945 H 0.0 **** 0.06
24186 C 85.79799821194021 29.103465230322826 31.929697735277593 C 0.0 **** -0.24
24187 H 85.96890778195223 30.1736939107183 32.04635486642166 H 0.0 **** 0.06
24188 H 86.61708735863692 28.665070520601887 31.36006240596918 H 0.0 **** 0.06
24189 H 84.85917866185403 28.94260236294329 31.400085273291275 H 0.0 **** 0.06
24190 H 85.74601677231357 28.63557874880115 32.913206050321165 H 0.0 **** 0.06
24191 C 17.726217521324315 4.15246966688764 44.431621722905874 C 0.0 **** -0.24
24192 H 18.64413843292911 3.574388071568407 44.322400424548746 H 0.0 **** 0.06
24193 H 17.545256011943394 4.722210985459554 43.519786106636616 H 0.0 **** 0.06
24194 H 17.826471859438783 4.837269259114748 45.2736549593499 H 0.0 **** 0.06
24195 H 16.890088225386165 3.476917774206683 44.610671432884715 H 0.0 **** 0.06
24196 C 85.68474320069504 55.61424088139389 43.35029020531482 C 0.0 **** -0.24
24197 H 84.76226091769527 55.033276097181925 43.37754476601532 H 0.0 **** 0.06
24198 H 85.78931957545518 56.17239533891334 44.28050187694197 H 0.0 **** 0.06
24199 H 85.65136369801712 56.30955658351711 42.51088843403352 H 0.0 **** 0.06
24200 H 86.53449030964711 54.94199625262747 43.23147354189484 H 0.0 **** 0.06
24201 C 87.94859125115971 24.068341548612494 30.267311172398095 C 0.0 **** -0.24
24202 H 89.02549558609513 24.13515859874289 30.419685334805877 H 0.0 **** 0.06
24203 H 87.47859188545232 25.002428063930452 30.576319931606918 H 0.0 **** 0.06
24204 H 87.54728252438898 23.24676009305712 30.86029395719663 H 0.0 **** 0.06
24205 H 87.74205030500076 23.88974490420766 29.212183004057337 H 0.0 **** 0.06
24206 C 56.463077295089334 68.71998560377517 87.66948963259514 C 0.0 **** -0.24
24207 H 56.757394320093596 67.67071938745471 87.63554376941241 H 0.0 **** 0.06
24208 H 55.660938717183996 68.84989396601475 88.39658932213524 H 0.0 **** 0.06
24209 H 56.11578464440055 69.03265473263275 86.68454534874684 H 0.0 **** 0.06
24210 H 57.32021013886103 69.32715546516238 87.96211308674137 H 0.0 **** 0.06
24211 C 31.40489178597636 65.96284062325213 87.1239314941981 C 0.0 **** -0.24
24212 H 31.169343498529884 64.90435335529466 87.2353007345817 H 0.0 **** 0.06
24213 H 30.841180854197034 66.54052390912872 87.85667183905773 H 0.0 **** 0.06
24214 H 31.13599895669364 66.28980167207015 86.11940348618614 H 0.0 **** 0.06
24215 H 32.472342160734854 66.11586205279445 87.28299605000257 H 0.0 **** 0.06
24216 C 97.55516669084076 16.449369514229392 110.53868832040817 C 0.0 **** -0.24
24217 H 97.19125981781156 15.49042770381699 110.1698946433263 H 0.0 **** 0.06
24218 H 98.1438491823726 16.291168985203953 111.44148831072974 H 0.0 **** 0.06
24219 H 96.70733699264201 17.09621799295232 110.76532297323001 H 0.0 **** 0.06
24220 H 98.17725659714426 16.918452604563406 109.77614873771961 H 0.0 **** 0.06
24221 C 51.93656264955608 43.36131895412427 54.90673922472354 C 0.0 **** -0.24
24222 H 51.02812115795468 43.80416864878856 54.497749462895 H 0.0 **** 0.06
24223 H 52.68984610697464 44.13796991939466 55.043479013043566 H 0.0 **** 0.06
24224 H 52.31476936153275 42.60606688213721 54.21721009153919 H 0.0 **** 0.06
24225 H 51.71437612922919 42.897012221181825 55.86701717391895 H 0.0 **** 0.06
24226 C 70.81384277031864 92.42372099832696 49.38329517284591 C 0.0 **** -0.24
24227 H 71.08512550294722 92.2699071965011 50.42731975787567 H 0.0 **** 0.06
24228 H 69.88358166472034 92.99104331939662 49.32984274270407 H 0.0 **** 0.06
24229 H 70.6802427076729 91.4578518642218 48.895429139647554 H 0.0 **** 0.06
24230 H 71.6066833930532 92.97819882986349 48.879919024974505 H 0.0 **** 0.06
24231 C 89.23107554210969 21.629877672508986 35.05871914439438 C 0.0 **** -0.24
24232 H 89.17981744437114 21.57676349703848 33.97132921063827 H 0.0 **** 0.06
24233 H 88.87853096702977 22.607336141530137 35.390568134112115 H 0.0 **** 0.06
24234 H 90.26252652691119 21.487351781713965 35.38016990880477 H 0.0 **** 0.06
24235 H 88.60430345007663 20.851164241399307 35.49091401829246 H 0.0 **** 0.06
24236 C 50.74731235051141 25.543559421936507 69.30244284758245 C 0.0 **** -0.24
24237 H 50.78702419100675 24.459693502333437 69.41196472244692 H 0.0 **** 0.06
24238 H 50.43342557787838 25.794550524340536 68.28913195622582 H 0.0 **** 0.06
24239 H 51.735516440214425 25.963331057869908 69.49147687205505 H 0.0 **** 0.06
24240 H 50.035545702735845 25.95500572658449 70.01756697794247 H 0.0 **** 0.06
24241 C 71.52756351423812 111.09708838537972 39.29482565123914 C 0.0 **** -0.24
24242 H 71.04852120611181 112.021815579899 38.972647921806754 H 0.0 **** 0.06
24243 H 71.51241417397799 111.04042407047845 40.383276406292794 H 0.0 **** 0.06
24244 H 72.55896964491569 111.08132775530368 38.943634328744224 H 0.0 **** 0.06
24245 H 70.98860461260466 110.24569178786086 38.878282053480746 H 0.0 **** 0.06
24246 C 99.36039562438415 94.7043952452801 86.32866862194592 C 0.0 **** -0.24
24247 H 99.54159716630457 93.62918857845298 86.31151995944379 H 0.0 **** 0.06
24248 H 98.28629596687733 94.89017043916922 86.36728187127218 H 0.0 **** 0.06
24249 H 99.77651733148295 95.1564671710162 85.42822312034187 H 0.0 **** 0.06
24250 H 99.83607949535721 95.13897015301873 87.20787900426038 H 0.0 **** 0.06
24251 C 65.10477116719701 20.059223455478477 104.27740888460585 C 0.0 **** -0.24
24252 H 64.68693968522692 21.025534910821975 104.55812646375935 H 0.0 **** 0.06
24253 H 65.91916306654488 20.208513810523364 103.56804533267632 H 0.0 **** 0.06
24254 H 64.32945555569478 19.447097012935608 103.81749121022901 H 0.0 **** 0.06
24255 H 65.485723287812 19.555769852812446 105.16638885361868 H 0.0 **** 0.06
24256 C 84.04758727960305 81.33489436383519 34.997667944735944 C 0.0 **** -0.24
24257 H 84.58418055460152 81.17801309615126 35.93319576107678 H 0.0 **** 0.06
24258 H 84.75308061697584 81.31423056678156 34.165940434597275 H 0.0 **** 0.06
24259 H 83.54541463835722 82.30174935226484 35.024713047649676 H 0.0 **** 0.06
24260 H 83.30821426382107 80.54477658778663 34.8665884445902 H 0.0 **** 0.06
24261 C 60.26289979633938 91.4225276957298 78.4595332043626 C 0.0 **** -0.24
24262 H 61.0906827088711 92.01998035858031 78.8427292465473 H 0.0 **** 0.06
24263 H 60.629419786607826 90.43650439991757 78.17350424964022 H 0.0 **** 0.06
24264 H 59.83116385511869 91.91636990786367 77.58873566045435 H 0.0 **** 0.06
24265 H 59.50302186765137 91.31810869125513 79.23295708810082 H 0.0 **** 0.06
24266 C 37.17323142708449 93.33603060441129 106.57143429147344 C 0.0 **** -0.24
24267 H 36.34867132066955 92.64594538817218 106.7499179255035 H 0.0 **** 0.06
24268 H 36.88990691482408 94.04473691257306 105.79231680227113 H 0.0 **** 0.06
24269 H 38.05250645966635 92.77698505233076 106.2517330809188 H 0.0 **** 0.06
24270 H 37.39918631104527 93.87655583789606 107.49079834993304 H 0.0 **** 0.06
24271 C 66.9879293282469 94.24868470260992 69.67178043844876 C 0.0 **** -0.24
24272 H 67.1563056502099 93.27988436057888 69.20125550453758 H 0.0 **** 0.06
24273 H 66.48358598673934 94.9117745421085 68.96697677695522 H 0.0 **** 0.06
24274 H 67.94487035427608 94.68434516041003 69.95880172235479 H 0.0 **** 0.06
24275 H 66.36705615300832 94.11964863898478 70.55690101822279 H 0.0 **** 0.06
24276 C 65.27425053407802 106.15961903157068 25.53847633368757 C 0.0 **** -0.24
24277 H 66.01332097327176 106.08835768433846 24.740924419563044 H 0.0 **** 0.06
24278 H 65.02405925902261 107.20648637411972 25.709848650429677 H 0.0 **** 0.06
24279 H 65.68350469553732 105.72920136092557 26.45278704915748 H 0.0 **** 0.06
24280 H 64.37581613500325 105.61304957233358 25.250301221036295 H 0.0 **** 0.06
24281 C 31.90400814721562 112.42957671012488 29.65973080097376 C 0.0 **** -0.24
24282 H 32.54584781768767 111.80774739839755 29.036492102841024 H 0.0 **** 0.06
24283 H 30.95053073611757 111.92328492281521 29.817325109915558 H 0.0 **** 0.06
24284 H 31.73228743337853 113.3846364742752 29.16481146789883 H 0.0 **** 0.06
24285 H 32.38746699197975 112.59992488564947 30.62157092387217 H 0.0 **** 0.06
24286 C 16.14714512622652 100.54681155534337 98.23083993380672 C 0.0 **** -0.24
24287 H 15.497559684607126 99.69015722891248 98.04862149108303 H 0.0 **** 0.06
24288 H 15.72693235761389 101.15836410742611 99.02884059413122 H 0.0 **** 0.06
24289 H 16.22712256125314 101.1409197360789 97.32032772319519 H 0.0 **** 0.06
24290 H 17.136305099776877 100.19588605209714 98.52314485451882 H 0.0 **** 0.06
24291 C 4.796009045415218 43.622195530654636 107.47590174996924 C 0.0 **** -0.24
24292 H 4.694324181492547 43.683338548923814 106.3922670684106 H 0.0 **** 0.06
24293 H 4.349419080078761 44.50518282741962 107.93316232299213 H 0.0 **** 0.06
24294 H 5.852742913767955 43.57193723412283 107.73846036717467 H 0.0 **** 0.06
24295 H 4.288293437831143 42.72856670941613 107.83853898914951 H 0.0 **** 0.06
24296 C 83.10088256543878 107.3677351254795 15.632913583228174 C 0.0 **** -0.24
24297 H 84.11829022222312 107.63597523335457 15.919199012092037 H 0.0 **** 0.06
24298 H 82.54179447064226 107.0664238740161 16.519818046789283 H 0.0 **** 0.06
24299 H 83.1286693664781 106.54161350349295 14.922856324302643 H 0.0 **** 0.06
24300 H 82.61507313054338 108.22798146661418 15.17197233115732 H 0.0 **** 0.06
24301 C 13.775995040171619 83.49549253943493 44.54065009130576 C 0.0 **** -0.24
24302 H 12.776614847507947 83.09811845732929 44.71567412847233 H 0.0 **** 0.06
24303 H 13.700040247500631 84.45478430642879 44.02739806678886 H 0.0 **** 0.06
24304 H 14.341345758006739 82.79723137308369 43.9243918381733 H 0.0 **** 0.06
24305 H 14.284273373996715 83.63356274468 45.49480685398757 H 0.0 **** 0.06
24306 C 35.48027292730745 19.246126077985267 99.71269157301958 C 0.0 **** -0.24
24307 H 35.428565245558815 18.183738913892725 99.47598674134403 H 0.0 **** 0.06
24308 H 35.575808892510025 19.373773369985358 100.79158661587968 H 0.0 **** 0.06
24309 H 34.57025389918314 19.738324437391256 99.36771388251674 H 0.0 **** 0.06
24310 H 36.34360961068418 19.688027995171808 99.21614670661967 H 0.0 **** 0.06
24311 C 38.77265100082434 100.47919801561488 0.31787366149163176 C 0.0 **** -0.24
24312 H 39.61635343687885 99.86833435612698 -0.0026261922671437787 H 0.0 **** 0.06
24313 H 38.39887006546962 101.05666303685598 -0.5275861804784086 H 0.0 **** 0.06
24314 H 39.095793314899026 101.15841256121462 1.1080515850370034 H 0.0 **** 0.06
24315 H 37.9804447067429 99.83345729698084 0.6968584992188767 H 0.0 **** 0.06
24316 C 83.44925656401398 87.60567559698524 37.47931869023853 C 0.0 **** -0.24
24317 H 83.45096977964482 86.7521667868339 38.157730954874324 H 0.0 **** 0.06
24318 H 83.4086254013416 87.25026714242125 36.449076291391236 H 0.0 **** 0.06
24319 H 84.35755128583304 88.18991304265776 37.627189243533024 H 0.0 **** 0.06
24320 H 82.57904109824415 88.22985008116376 37.68307506973349 H 0.0 **** 0.06
24321 C 44.109239609524195 97.21760722913535 72.01983717209532 C 0.0 **** -0.24
24322 H 45.09279801710295 97.20549920879878 71.54975242682588 H 0.0 **** 0.06
24323 H 43.53755085218984 98.06512789714543 71.64077634364753 H 0.0 **** 0.06
24324 H 44.2239645261584 97.31007178002207 73.09985425188563 H 0.0 **** 0.06
24325 H 43.58447978364103 96.29098094506463 71.78870256520918 H 0.0 **** 0.06
24326 C 73.65477484476085 36.61007823157337 81.53275583572497 C 0.0 **** -0.24
24327 H 73.07505741586479 36.85665600517976 80.64376121154385 H 0.0 **** 0.06
24328 H 73.92355875327348 37.527375349277804 82.05728861678256 H 0.0 **** 0.06
24329 H 74.56139761916762 36.079396288344554 81.2395403984973 H 0.0 **** 0.06
24330 H 73.05979349524924 35.976267103803764 82.19009138255512 H 0.0 **** 0.06
24331 C 106.30915112201689 11.1978094500957 96.48299209011452 C 0.0 **** -0.24
24332 H 105.81886150739751 10.224302344330912 96.49291196734995 H 0.0 **** 0.06
24333 H 107.37357892710719 11.06951927238249 96.67907232107268 H 0.0 **** 0.06
24334 H 105.87121220628649 11.831932316127723 97.25354712469644 H 0.0 **** 0.06
24335 H 106.17206770006595 11.662684119447391 95.5070535548559 H 0.0 **** 0.06
24336 C 89.94797096542987 9.548729771069642 8.940566682265967 C 0.0 **** -0.24
24337 H 90.25952382959616 8.935676441685521 8.094652479327777 H 0.0 **** 0.06
24338 H 90.80471179908255 10.100600354504568 9.325110956068158 H 0.0 **** 0.06
24339 H 89.5468649126671 8.906584114811688 9.724936047597907 H 0.0 **** 0.06
24340 H 89.17799762616625 10.249678527801017 8.616806989980148 H 0.0 **** 0.06
24341 C 0.44994393842620184 93.57949388935035 83.19185413361362 C 0.0 **** -0.24
24342 H 0.2701285113029428 92.55577913566043 83.52254884884184 H 0.0 **** 0.06
24343 H 1.4417822901368709 93.64813455325714 82.74541767270176 H 0.0 **** 0.06
24344 H 0.3890159128113737 94.25242915080423 84.0472489593551 H 0.0 **** 0.06
24345 H -0.3016520039208501 93.85934565398173 82.45494313900082 H 0.0 **** 0.06
24346 C 47.5148499136092 105.44483692563841 75.9643097885735 C 0.0 **** -0.24
24347 H 48.07242366348456 105.6412366559399 76.88020064521493 H 0.0 **** 0.06
24348 H 47.04519096968577 106.36695747498032 75.61968006457616 H 0.0 **** 0.06
24349 H 46.74656848286195 104.69697309993285 76.16077030358693 H 0.0 **** 0.06
24350 H 48.19399581790076 105.07428681548151 75.19729428955421 H 0.0 **** 0.06
24351 C 55.00580787292978 36.562438527727494 90.02925771765555 C 0.0 **** -0.24
24352 H 55.34686810315239 37.13660092416882 89.16834610910374 H 0.0 **** 0.06
24353 H 54.97538055591346 37.207518144902735 90.90689990590727 H 0.0 **** 0.06
24354 H 55.69319593209789 35.73560071156365 90.20977449879089 H 0.0 **** 0.06
24355 H 54.008549860780136 36.1694056534061 89.83185964579349 H 0.0 **** 0.06
24356 C 108.24296780815648 80.82497521705545 24.118316415636656 C 0.0 **** -0.24
24357 H 107.8032099306324 79.84620940499815 23.931349083570534 H 0.0 **** 0.06
24358 H 109.16778082933817 80.7055286539852 24.684500041346887 H 0.0 **** 0.06
24359 H 107.54322522786087 81.43475938567758 24.690784790983898 H 0.0 **** 0.06
24360 H 108.45848449737217 81.31437016986547 23.168724133341847 H 0.0 **** 0.06
24361 C 45.84701121962852 4.991289636285671 53.033737344269525 C 0.0 **** -0.24
24362 H 46.76947219478099 5.561838230253329 52.92125402004038 H 0.0 **** 0.06
24363 H 45.872588759438955 4.442592999656881 53.97557130955616 H 0.0 **** 0.06
24364 H 45.75233532580803 4.288695652383808 52.206153194896615 H 0.0 **** 0.06
24365 H 44.996024027405326 5.672110904663043 53.0313780638142 H 0.0 **** 0.06
24366 C 9.178432243911459 51.676753420071634 38.69756787639866 C 0.0 **** -0.24
24367 H 9.813647777090466 51.33660340691216 39.515039312129666 H 0.0 **** 0.06
24368 H 8.33845560470266 50.992061794059396 38.58124074797432 H 0.0 **** 0.06
24369 H 9.757323053702606 51.703314109213295 37.77460074461937 H 0.0 **** 0.06
24370 H 8.804198439442729 52.6759539938563 38.92165869459559 H 0.0 **** 0.06
24371 C 18.705928907131987 41.23878173913357 83.95206499482663 C 0.0 **** -0.24
24372 H 19.19811956555342 41.64955618757173 83.06996457316322 H 0.0 **** 0.06
24373 H 17.625779671432433 41.342407554310086 83.8460803626071 H 0.0 **** 0.06
24374 H 19.03857628988167 41.77970323783063 84.83762865996553 H 0.0 **** 0.06
24375 H 18.961750036765494 40.18377298471279 84.05243178944039 H 0.0 **** 0.06
24376 C 96.02442471687897 54.11065370320563 108.23161316143567 C 0.0 **** -0.24
24377 H 95.60615848147512 53.38133416661674 107.5375564015085 H 0.0 **** 0.06
24378 H 97.00047436445237 54.43697983592165 107.87200260573209 H 0.0 **** 0.06
24379 H 96.13379374410857 53.65431901653085 109.21591723716031 H 0.0 **** 0.06
24380 H 95.35671310341223 54.9696740591811 108.30174625880842 H 0.0 **** 0.06
24381 C 46.436000740430174 100.20403994365392 99.42968972147213 C 0.0 **** -0.24
24382 H 46.272023846446444 99.40681600691201 98.70338946100537 H 0.0 **** 0.06
24383 H 46.90640980466543 99.79138441160546 100.32153726961553 H 0.0 **** 0.06
24384 H 45.47989870040634 100.65291175222612 99.6972646227618 H 0.0 **** 0.06
24385 H 47.08504515785506 100.96354425637082 98.99404775748326 H 0.0 **** 0.06
24386 C 94.67743076875755 80.5198581564303 30.603344176803105 C 0.0 **** -0.24
24387 H 95.20074650210634 81.44284926529895 30.355182125795423 H 0.0 **** 0.06
24388 H 94.65264859855299 79.87000331733987 29.72799397143868 H 0.0 **** 0.06
24389 H 93.65819864146385 80.75235292928446 30.91212961782314 H 0.0 **** 0.06
24390 H 95.19790656553008 80.01484941909987 31.417320547266584 H 0.0 **** 0.06
24391 C 102.99452338516892 6.768870580227386 81.2821920033733 C 0.0 **** -0.24
24392 H 102.92535416212513 7.538516848479489 80.51425218788017 H 0.0 **** 0.06
24393 H 103.84892647332202 6.976130672018726 81.92810850281438 H 0.0 **** 0.06
24394 H 103.12390400867582 5.794805640739909 80.80999335774513 H 0.0 **** 0.06
24395 H 102.08087610274691 6.765747304066849 81.87740652892683 H 0.0 **** 0.06
24396 C 17.59858751501361 73.039025598476 40.999756345836175 C 0.0 **** -0.24
24397 H 18.31865142772487 73.58694817384674 40.3922786242928 H 0.0 **** 0.06
24398 H 17.438200336104067 73.56813443470915 41.938202446153596 H 0.0 **** 0.06
24399 H 17.98420126870117 72.04010947077734 41.2053774359578 H 0.0 **** 0.06
24400 H 16.65476477600181 72.95918763761188 40.46018712986545 H 0.0 **** 0.06
24401 C 66.17491646412446 27.887744553622838 97.60056145698792 C 0.0 **** -0.24
24402 H 67.23289321152777 28.05951901853399 97.40419678628544 H 0.0 **** 0.06
24403 H 65.85846960049201 26.966746397316882 97.10943494358327 H 0.0 **** 0.06
24404 H 65.59377806715275 28.72533751664872 97.21401829585966 H 0.0 **** 0.06
24405 H 66.01524095279518 27.80021220688414 98.67548296021275 H 0.0 **** 0.06
24406 C 93.05772192763203 64.03806788056235 39.2050249924462 C 0.0 **** -0.24
24407 H 92.43661366179623 64.78488557065904 38.70954411366128 H 0.0 **** 0.06
24408 H 93.39876410876468 63.30510735745463 38.47185130149643 H 0.0 **** 0.06
24409 H 92.47588379319328 63.534966853364324 39.97730352319772 H 0.0 **** 0.06
24410 H 93.9200101123794 64.52636052634418 39.65858176343198 H 0.0 **** 0.06
24411 C 11.507552319795252 112.41466703679828 19.142338859848252 C 0.0 **** -0.24
24412 H 11.631427021613433 113.148514459695 19.939072466245847 H 0.0 **** 0.06
24413 H 10.552625806750939 111.90306054290608 19.26503593632657 H 0.0 **** 0.06
24414 H 12.318294073985967 111.6876687182535 19.18885376394053 H 0.0 **** 0.06
24415 H 11.527862376830427 112.91942442633861 18.176393272880006 H 0.0 **** 0.06
24416 C 3.4682514820547894 97.2114224613104 1.1600573725470156 C 0.0 **** -0.24
24417 H 3.8753208346191883 98.16958237629922 0.8359932609819225 H 0.0 **** 0.06
24418 H 4.16833265340461 96.73381528993153 1.8465078141197466 H 0.0 **** 0.06
24419 H 3.3137142320888877 96.57076805902395 0.29237625994349514 H 0.0 **** 0.06
24420 H 2.516769928597471 97.37475757964782 1.666857060948729 H 0.0 **** 0.06
24421 C 16.058147558472683 112.53497424217687 72.33833815961827 C 0.0 **** -0.24
24422 H 16.220675686606455 112.55535487178594 71.2603021316103 H 0.0 **** 0.06
24423 H 15.392267789591244 113.35044700768626 72.6200839192762 H 0.0 **** 0.06
24424 H 17.013097288735537 112.65058820114197 72.85072258522248 H 0.0 **** 0.06
24425 H 15.608302339097634 111.58297795126654 72.61986741181934 H 0.0 **** 0.06
24426 C 83.70712102530041 86.25895199710257 50.639749459247355 C 0.0 **** -0.24
24427 H 83.90082844104577 87.26173302112093 51.02288539568343 H 0.0 **** 0.06
24428 H 82.85247040573745 86.28869717411081 49.96301539072465 H 0.0 **** 0.06
24429 H 83.48964065320789 85.58787918348193 51.47114407004892 H 0.0 **** 0.06
24430 H 84.58485121777508 85.90015906944697 50.10261753084393 H 0.0 **** 0.06
24431 C 77.51483065374822 14.864248792751937 7.151998780808555 C 0.0 **** -0.24
24432 H 76.46817215242422 14.650008912604676 7.371356308429796 H 0.0 **** 0.06
24433 H 78.10695448839678 14.74780157623104 8.059883585298508 H 0.0 **** 0.06
24434 H 77.60757951245824 15.886546322542245 6.785067162393801 H 0.0 **** 0.06
24435 H 77.8744784922969 14.171470199979382 6.3914334494664615 H 0.0 **** 0.06
24436 C 86.41684808064298 23.026889740262902 102.7182722985662 C 0.0 **** -0.24
24437 H 85.88117416471309 22.951782142045374 103.66497697050528 H 0.0 **** 0.06
24438 H 85.72510648497803 23.334087338114244 101.93412653975889 H 0.0 **** 0.06
24439 H 86.84510151238672 22.056581932981032 102.46562989828459 H 0.0 **** 0.06
24440 H 87.21440750938925 23.76381051073085 102.80967848913383 H 0.0 **** 0.06
24441 C 97.79469017976763 21.87124782345566 28.278591540236825 C 0.0 **** -0.24
24442 H 98.05570139553163 22.436704570516014 27.38391103046368 H 0.0 **** 0.06
24443 H 98.46681988226871 22.148820740642066 29.09170557510045 H 0.0 **** 0.06
24444 H 97.89000921031189 20.805267757598997 28.07576628900945 H 0.0 **** 0.06
24445 H 96.7669207324316 22.097287727339534 28.56397261331825 H 0.0 **** 0.06
24446 C 104.16757470372175 93.95721935918803 21.491287624816067 C 0.0 **** -0.24
24447 H 104.03071263938935 94.28052728579752 22.52367040494775 H 0.0 **** 0.06
24448 H 104.87230992062294 93.12624170026467 21.46220516394078 H 0.0 **** 0.06
24449 H 104.55581597011007 94.78526202530716 20.899689489392472 H 0.0 **** 0.06
24450 H 103.20899454662992 93.63610085727089 21.0822993049766 H 0.0 **** 0.06
24451 C 11.471754572609633 94.83065382276536 26.966781263850265 C 0.0 **** -0.24
24452 H 11.278542763512064 95.30468855893241 27.929224336818038 H 0.0 **** 0.06
24453 H 12.34136004819614 94.17887441144148 27.05022165731981 H 0.0 **** 0.06
24454 H 11.662610625690874 95.59738486692734 26.21610833496044 H 0.0 **** 0.06
24455 H 10.603578963186557 94.24128978631597 26.67155839721363 H 0.0 **** 0.06
24456 C 76.11603689066249 102.1921010681724 34.45182487020605 C 0.0 **** -0.24
24457 H 75.69757579980245 102.37483577659361 33.46212404359454 H 0.0 **** 0.06
24458 H 77.14677525879168 101.85007692628565 34.35277763151265 H 0.0 **** 0.06
24459 H 75.52632793558303 101.42864976505211 34.95972040318475 H 0.0 **** 0.06
24460 H 76.0934024622187 103.11577116562128 35.032314118796705 H 0.0 **** 0.06
24461 C 0.17607140745093375 110.7447530326557 111.71296972459818 C 0.0 **** -0.24
24462 H -0.07064301300613351 109.76763274829497 111.29807538209933 H 0.0 **** 0.06
24463 H -0.11589207486241548 110.77757498936023 112.76389768841528 H 0.0 **** 0.06
24464 H -0.35947571082652985 111.5191921996169 111.1629127196127 H 0.0 **** 0.06
24465 H 1.2490666091015896 110.91617706150635 111.62842106913604 H 0.0 **** 0.06
24466 C 108.9750420563681 100.11066723104733 85.3619269601611 C 0.0 **** -0.24
24467 H 108.00584935403678 100.45272311146186 84.99680813318295 H 0.0 **** 0.06
24468 H 109.47423373505887 100.92618733814706 85.88409929378534 H 0.0 **** 0.06
24469 H 109.5865255069227 99.78830045296695 84.52007961584829 H 0.0 **** 0.06
24470 H 108.82955504239324 99.27447735873818 86.04667032902188 H 0.0 **** 0.06
24471 C 7.325744616049377 16.200621760739153 17.648505800342065 C 0.0 **** -0.24
24472 H 8.009000290827089 16.27573348376535 16.802504436815482 H 0.0 **** 0.06
24473 H 6.805795159645442 17.14959034782396 17.780014651000997 H 0.0 **** 0.06
24474 H 7.890316292292951 15.967063838582447 18.550904205337673 H 0.0 **** 0.06
24475 H 6.599495594043674 15.410131305261729 17.459068230065654 H 0.0 **** 0.06
24476 C 63.49344038754544 82.57430103518419 101.10471275068221 C 0.0 **** -0.24
24477 H 62.77197013722894 81.91314484148685 100.62392319690844 H 0.0 **** 0.06
24478 H 63.06104723160494 82.97933305788405 102.02058922040587 H 0.0 **** 0.06
24479 H 63.74363962358576 83.3917416387709 100.42849637246297 H 0.0 **** 0.06
24480 H 64.39494345852808 82.01250298578148 101.34615522886796 H 0.0 **** 0.06
24481 C 112.2392325221837 38.279366425567105 69.36181615219687 C 0.0 **** -0.24
24482 H 111.81770360044612 38.43773044911603 68.36949031943195 H 0.0 **** 0.06
24483 H 112.59021385439877 37.25105187298709 69.44782586216027 H 0.0 **** 0.06
24484 H 111.4744391238082 38.46769932619287 70.11506985922497 H 0.0 **** 0.06
24485 H 113.07512330484997 38.96295777323047 69.51353599642854 H 0.0 **** 0.06
24486 C 54.6408491152105 40.32396711880918 1.500957043522618 C 0.0 **** -0.24
24487 H 54.427707106409684 40.26642356484484 0.43298856039098155 H 0.0 **** 0.06
24488 H 55.690837275163375 40.08677588604655 1.6746482010161685 H 0.0 **** 0.06
24489 H 54.01346649761692 39.61051235547271 2.035322784881288 H 0.0 **** 0.06
24490 H 54.43045078881491 41.33212900490301 1.8580180300457414 H 0.0 **** 0.06
24491 C 74.35414138271966 97.4109362348207 64.1282016801554 C 0.0 **** -0.24
24492 H 75.05909591524807 98.11506365473923 63.687210723599975 H 0.0 **** 0.06
24493 H 74.37966724823454 96.4736932571829 63.5707561507418 H 0.0 **** 0.06
24494 H 73.34907216808381 97.83049440039986 64.08910964039958 H 0.0 **** 0.06
24495 H 74.62939604257994 97.22357388803442 65.1665733230117 H 0.0 **** 0.06
24496 C 23.560361383962032 86.13714411166117 12.093473969239678 C 0.0 **** -0.24
24497 H 24.097946939647546 86.9419194252491 11.593304215496847 H 0.0 **** 0.06
24498 H 22.7377280882659 86.55478120032035 12.674070318177467 H 0.0 **** 0.06
24499 H 24.240574265984336 85.60420162214578 12.758412440599038 H 0.0 **** 0.06
24500 H 23.16583836358021 85.44606567661722 11.34808640926499 H 0.0 **** 0.06
24501 C 107.27680774659274 106.04598744195278 61.14802486572063 C 0.0 **** -0.24
24502 H 106.74926804699217 106.95731101020063 60.86627743629137 H 0.0 **** 0.06
24503 H 107.10846731270507 105.28028928899053 60.39006557584764 H 0.0 **** 0.06
24504 H 106.90587695498158 105.6939916716228 62.1099046065643 H 0.0 **** 0.06
24505 H 108.34405158449087 106.2537133483498 61.22321071231005 H 0.0 **** 0.06
24506 C 29.82866422098948 54.29273369284732 59.74101240704158 C 0.0 **** -0.24
24507 H 30.32221037305476 54.22307989389222 60.710544744041414 H 0.0 **** 0.06
24508 H 28.988555663633406 54.98428844191781 59.809108388136536 H 0.0 **** 0.06
24509 H 29.46689944540765 53.307559426538546 59.446424035294314 H 0.0 **** 0.06
24510 H 30.53897644593252 54.655928128860864 58.996945980507235 H 0.0 **** 0.06
24511 C 98.71688041431378 63.774659585899656 86.37443552739819 C 0.0 **** -0.24
24512 H 98.34312325742874 64.78760271229137 86.53008997278783 H 0.0 **** 0.06
24513 H 99.40719561019 63.51603445652847 87.17716483740193 H 0.0 **** 0.06
24514 H 99.23510832371858 63.72207085966471 85.41743312555829 H 0.0 **** 0.06
24515 H 97.88049350612863 63.075820455508705 86.37334510375757 H 0.0 **** 0.06
24516 C 64.13603110685014 70.57526759412826 65.56499110181241 C 0.0 **** -0.24
24517 H 64.67932343214957 71.31066509268797 66.1587893712099 H 0.0 **** 0.06
24518 H 63.372468622766974 71.08041341695017 64.9717984414464 H 0.0 **** 0.06
24519 H 63.6617629733276 69.8518413822843 66.22793274648126 H 0.0 **** 0.06
24520 H 64.82985086066279 70.05928070795318 64.90098952330379 H 0.0 **** 0.06
24521 C 21.773111121912667 56.930312265933615 50.10374196875509 C 0.0 **** -0.24
24522 H 22.189570444796672 56.30557416626745 50.8940079604576 H 0.0 **** 0.06
24523 H 22.556646486262576 57.56752359552704 49.69309556128283 H 0.0 **** 0.06
24524 H 20.977009917843304 57.552179975222366 50.514404693627824 H 0.0 **** 0.06
24525 H 21.367810261183468 56.296166951550404 49.314867227131714 H 0.0 **** 0.06
24526 C 64.09378981849278 17.842187361849994 13.388014325125681 C 0.0 **** -0.24
24527 H 63.07010982985637 18.184283173892652 13.23707027896512 H 0.0 **** 0.06
24528 H 64.4829644684423 17.4382320109342 12.452288042422595 H 0.0 **** 0.06
24529 H 64.10791281747532 17.066753902357135 14.15322136909623 H 0.0 **** 0.06
24530 H 64.7129612189392 18.67971733639422 13.707361526668208 H 0.0 **** 0.06
24531 C 86.90277269572235 92.94254753485171 31.642827854971713 C 0.0 **** -0.24
24532 H 87.22077339313728 93.37504824429232 32.591038293679084 H 0.0 **** 0.06
24533 H 85.91970755471434 92.4880950796861 31.762047109379992 H 0.0 **** 0.06
24534 H 87.62003269189867 92.18204933410021 31.33235396354864 H 0.0 **** 0.06
24535 H 86.85278601431423 93.72518363634896 30.88557791375817 H 0.0 **** 0.06
24536 C 72.41786403617263 78.8876151535658 32.63022848374044 C 0.0 **** -0.24
24537 H 71.85547081058291 79.81836507146059 32.700248515106225 H 0.0 **** 0.06
24538 H 73.47700797568953 79.11200284454353 32.50585147208355 H 0.0 **** 0.06
24539 H 72.06355339314007 78.31354741742786 31.77340489829131 H 0.0 **** 0.06
24540 H 72.27306245195118 78.3069823122841 33.54092676464968 H 0.0 **** 0.06
24541 C 12.95734474364923 1.8897362390073909 31.24634003688965 C 0.0 **** -0.24
24542 H 13.59089617389446 1.6220706425073672 32.09278447256171 H 0.0 **** 0.06
24543 H 13.280085581469248 1.337471653933335 30.362940551027258 H 0.0 **** 0.06
24544 H 13.037992713539133 2.9598257671489705 31.056198835706923 H 0.0 **** 0.06
24545 H 11.92167400334123 1.638269457904812 31.47473215641837 H 0.0 **** 0.06
24546 C 0.40114154382028744 45.7122357169479 104.94301523511405 C 0.0 **** -0.24
24547 H 0.03686205729493963 44.70308846258547 105.1360428956626 H 0.0 **** 0.06
24548 H 1.402257811966436 45.82296010653087 105.35898600833289 H 0.0 **** 0.06
24549 H -0.2686387890523605 46.434574732249075 105.40970897506105 H 0.0 **** 0.06
24550 H 0.4320018905062284 45.887519295602914 103.86718125531971 H 0.0 **** 0.06
24551 C 52.22478108837179 59.654494247219986 73.43341597618189 C 0.0 **** -0.24
24552 H 52.146890729282106 59.62379910233662 72.34696475819351 H 0.0 **** 0.06
24553 H 53.21951791828103 59.325079573321204 73.73486754132068 H 0.0 **** 0.06
24554 H 51.47566145984739 58.99571042366691 73.87068471277735 H 0.0 **** 0.06
24555 H 52.059659480877144 60.67471702340171 73.77994409482676 H 0.0 **** 0.06
24556 C 27.360678489858685 21.948120463068307 59.951479666513166 C 0.0 **** -0.24
24557 H 28.36142815755929 21.593424133810288 60.19503442974951 H 0.0 **** 0.06
24558 H 26.76828577060388 22.01986687239912 60.864623582367926 H 0.0 **** 0.06
24559 H 26.884799643891483 21.248013091940408 59.26445826123526 H 0.0 **** 0.06
24560 H 27.426743591024803 22.929867137128426 59.4832722116729 H 0.0 **** 0.06
24561 C 21.484906203716946 39.324378562318714 11.88933028435909 C 0.0 **** -0.24
24562 H 22.43785568519047 39.27208480162511 12.415247578493961 H 0.0 **** 0.06
24563 H 21.625445017667573 39.01599250487635 10.852276574276743 H 0.0 **** 0.06
24564 H 21.110794150096808 40.34769893273193 11.917132623038043 H 0.0 **** 0.06
24565 H 20.76671098861482 38.66144764215477 12.371942575047143 H 0.0 **** 0.06
24566 C 65.36745392580934 107.71162574217693 92.19730233937725 C 0.0 **** -0.24
24567 H 66.12017620457439 106.94518816650694 92.01296841049881 H 0.0 **** 0.06
24568 H 65.0951087684492 108.18696750385052 91.25488431945831 H 0.0 **** 0.06
24569 H 65.77085388593358 108.45986437420935 92.87898024323343 H 0.0 **** 0.06
24570 H 64.48393434698045 107.25239769689735 92.64161100642505 H 0.0 **** 0.06
24571 C 22.980176082983377 3.0204330681069713 53.84108471074023 C 0.0 **** -0.24
24572 H 22.372064809281227 3.431582236983928 54.64683555809103 H 0.0 **** 0.06
24573 H 23.956696081824475 2.735759282100256 54.233484947517184 H 0.0 **** 0.06
24574 H 23.106355773460038 3.770184971480653 53.06073665004425 H 0.0 **** 0.06
24575 H 22.484911800492412 2.1428198489108325 53.424901155565635 H 0.0 **** 0.06
24576 C 31.0620087728459 41.89055480659562 11.994182869340236 C 0.0 **** -0.24
24577 H 30.904124781201574 40.96237483450378 11.444362888916572 H 0.0 **** 0.06
24578 H 30.464745260463957 41.878222158146315 12.906582816178258 H 0.0 **** 0.06
24579 H 30.761904171951073 42.73521890795368 11.3744852475118 H 0.0 **** 0.06
24580 H 32.11660607208245 41.985149893969464 12.25131638863482 H 0.0 **** 0.06
24581 C 95.36835774313991 32.233470149022004 15.487518631960643 C 0.0 **** -0.24
24582 H 94.36538374547698 31.80825540727536 15.441823822053642 H 0.0 **** 0.06
24583 H 95.98920462569589 31.628447969140147 16.148305059015808 H 0.0 **** 0.06
24584 H 95.31360898417253 33.2528337584155 15.870967263928005 H 0.0 **** 0.06
24585 H 95.80321804239173 32.24420528492589 14.488019921028613 H 0.0 **** 0.06
24586 C 14.83664061044675 27.72953317488401 20.904853521863515 C 0.0 **** -0.24
24587 H 14.976593775375203 28.644177047831164 20.327358781298926 H 0.0 **** 0.06
24588 H 15.601681686252022 27.668139512807414 21.678178358376186 H 0.0 **** 0.06
24589 H 14.917838826794135 26.86731413303744 20.242584247069516 H 0.0 **** 0.06
24590 H 13.849953948441907 27.73951104356763 21.36801576844266 H 0.0 **** 0.06
24591 C 5.262587618908487 17.4667623179497 49.92428003190124 C 0.0 **** -0.24
24592 H 4.458951776335926 17.035750707987006 50.52251066679736 H 0.0 **** 0.06
24593 H 5.83927622755844 18.159319317472978 50.5372983307701 H 0.0 **** 0.06
24594 H 4.836761809260912 18.001792820803928 49.07542012993939 H 0.0 **** 0.06
24595 H 5.913556030115815 16.671090324925217 49.56387259584793 H 0.0 **** 0.06
24596 C 95.4520379036662 44.97224212856648 76.08010400634313 C 0.0 **** -0.24
24597 H 95.92630320303016 45.58168185648924 76.84948820461489 H 0.0 **** 0.06
24598 H 94.3793506853483 45.163606599223016 76.07621622606834 H 0.0 **** 0.06
24599 H 95.63300384486558 43.91826903181651 76.28990010240523 H 0.0 **** 0.06
24600 H 95.87041559134394 45.22707405059951 75.10598838908061 H 0.0 **** 0.06
24601 C 4.870758052080806 93.7888640994588 71.75875157100242 C 0.0 **** -0.24
24602 H 4.2072432754118605 92.94219962212802 71.58059479994537 H 0.0 **** 0.06
24603 H 5.710270682863822 93.46816345296276 72.37520432816254 H 0.0 **** 0.06
24604 H 4.32123710051634 94.5775810455286 72.27290009929749 H 0.0 **** 0.06
24605 H 5.241936829415092 94.16544759822358 70.80581529335987 H 0.0 **** 0.06
24606 C 58.065169760778 80.10121524103357 46.93307051546 C 0.0 **** -0.24
24607 H 57.474129416881105 80.92769854342663 47.32901636197228 H 0.0 **** 0.06
24608 H 58.786271132525265 80.48396001887872 46.2107605801597 H 0.0 **** 0.06
24609 H 57.405693338336114 79.38486885630405 46.44403570609728 H 0.0 **** 0.06
24610 H 58.593789154784155 79.60946834557157 47.750224091798174 H 0.0 **** 0.06
24611 C 44.978881920991114 0.45737277906525264 5.671163607752078 C 0.0 **** -0.24
24612 H 45.450050600052805 1.4176964444372402 5.4611851917015315 H 0.0 **** 0.06
24613 H 45.728375586093534 -0.2433181203420247 6.039836808558903 H 0.0 **** 0.06
24614 H 44.53331671082191 0.0642007660003685 4.756515647291735 H 0.0 **** 0.06
24615 H 44.2027241689961 0.5900604383015775 6.424442760628494 H 0.0 **** 0.06
24616 C 38.12430766189249 103.47316201164196 40.302649907003605 C 0.0 **** -0.24
24617 H 38.48577830304754 102.83335545329254 41.10833966898544 H 0.0 **** 0.06
24618 H 37.097092370515725 103.20211550891585 40.05724825428275 H 0.0 **** 0.06
24619 H 38.75519988971632 103.34181428572776 39.42401567448419 H 0.0 **** 0.06
24620 H 38.15856472382143 104.51423610214201 40.62283352435717 H 0.0 **** 0.06
24621 C 45.70196065143654 37.28631935060642 45.297278646659166 C 0.0 **** -0.24
24622 H 45.88428328796921 37.468999627991536 46.35645747160056 H 0.0 **** 0.06
24623 H 46.39697738341375 36.529740082961865 44.93463297986854 H 0.0 **** 0.06
24624 H 45.846220177981685 38.212079574806324 44.73933004205667 H 0.0 **** 0.06
24625 H 44.678878883306 36.93610978187641 45.160712409237696 H 0.0 **** 0.06
24626 C 14.71379291304996 28.53681460062606 39.888915348094486 C 0.0 **** -0.24
24627 H 14.674637746551266 29.612864117627055 40.05961310782834 H 0.0 **** 0.06
24628 H 13.727927816211768 28.10561981019498 40.06175756604853 H 0.0 **** 0.06
24629 H 15.432946457812658 28.086805195885972 40.57422927244272 H 0.0 **** 0.06
24630 H 15.021280853288864 28.34308696624518 38.86112102083109 H 0.0 **** 0.06
24631 C 24.57966507585317 13.489684660465247 37.16215046646943 C 0.0 **** -0.24
24632 H 24.1589675777484 14.48799101584062 37.277347496954974 H 0.0 **** 0.06
24633 H 25.646705324645183 13.517290626941346 37.38607564566655 H 0.0 **** 0.06
24634 H 24.431668140681865 13.14782548104198 36.137850905663925 H 0.0 **** 0.06
24635 H 24.081671634170647 12.804261836374373 37.84905989393053 H 0.0 **** 0.06
24636 C 34.04087155482094 106.88577832946117 71.54338781350228 C 0.0 **** -0.24
24637 H 33.14858944681339 107.3975214645119 71.18160329136091 H 0.0 **** 0.06
24638 H 34.08008388390843 106.95030123298982 72.63123735982651 H 0.0 **** 0.06
24639 H 34.9267058423344 107.35630477060171 71.11829511872713 H 0.0 **** 0.06
24640 H 34.00520070812411 105.83879192472955 71.24313388678885 H 0.0 **** 0.06
24641 C 69.65773133112606 111.43638935006672 59.38840233212935 C 0.0 **** -0.24
24642 H 69.66603514146351 111.12578979127635 60.43339916295357 H 0.0 **** 0.06
24643 H 70.16909061134089 112.39374090192857 59.29000995910605 H 0.0 **** 0.06
24644 H 68.62689056058886 111.53871131614146 59.04823920790202 H 0.0 **** 0.06
24645 H 70.16791026821434 110.68734085349885 58.781917169256026 H 0.0 **** 0.06
24646 C 21.395970436941894 0.7060354719995843 41.74922407897702 C 0.0 **** -0.24
24647 H 21.596075816460257 1.713937320402266 42.112723855117025 H 0.0 **** 0.06
24648 H 20.386628175112264 0.41022692187458176 42.03725003962708 H 0.0 **** 0.06
24649 H 22.115678703341132 0.013449956711127697 42.18408339955343 H 0.0 **** 0.06
24650 H 21.483511199448316 0.6865058281446466 40.663058538888265 H 0.0 **** 0.06
24651 C 42.29155664346446 91.44973482254474 24.362711619095734 C 0.0 **** -0.24
24652 H 43.29933022703647 91.13388273092554 24.090249997162033 H 0.0 **** 0.06
24653 H 42.020536004225335 91.00834605372089 25.322907578009904 H 0.0 **** 0.06
24654 H 41.58857865447639 91.1184293757145 23.599196086023085 H 0.0 **** 0.06
24655 H 42.26000914761728 92.53636144487555 24.44032418478281 H 0.0 **** 0.06
24656 C 0.18996021020049625 70.7504387438085 55.51086189136063 C 0.0 **** -0.24
24657 H 0.006978018929174823 70.04369028132416 56.3206560346178 H 0.0 **** 0.06
24658 H 0.08143342432930467 71.76799622214716 55.88634039864249 H 0.0 **** 0.06
24659 H -0.52989267252741 70.57950662038007 54.710098220892036 H 0.0 **** 0.06
24660 H 1.1998526376187613 70.60871424500453 55.1270067149932 H 0.0 **** 0.06
24661 C 6.26501604684915 99.45167903627168 60.07536285033046 C 0.0 **** -0.24
24662 H 6.5134927969279985 100.19429746754301 60.83444956179098 H 0.0 **** 0.06
24663 H 5.31818498538356 98.97462557437643 60.331833948430706 H 0.0 **** 0.06
24664 H 7.051689881657195 98.69909016916046 60.03401554856294 H 0.0 **** 0.06
24665 H 6.176449274461525 99.93977607353747 59.10560076143549 H 0.0 **** 0.06
24666 C 40.59155937595088 46.315073392595245 18.539585323203084 C 0.0 **** -0.24
24667 H 41.23711845681905 46.9988091734182 19.090038950616588 H 0.0 **** 0.06
24668 H 40.37663500489788 46.731995398633906 17.555552316319734 H 0.0 **** 0.06
24669 H 39.658730982151866 46.17556133115927 19.0872604513321 H 0.0 **** 0.06
24670 H 41.09284722714813 45.353581452168434 18.425733826174508 H 0.0 **** 0.06
24671 C 66.9038001645063 59.75419751363423 20.228403118401815 C 0.0 **** -0.24
24672 H 67.19377382840287 60.77226263232074 19.96711186626348 H 0.0 **** 0.06
24673 H 67.42857598105343 59.448342700578515 21.13293200631398 H 0.0 **** 0.06
24674 H 67.1645458002464 59.08175553332075 19.410863571391474 H 0.0 **** 0.06
24675 H 65.82757426041442 59.71651212278409 20.401643109970024 H 0.0 **** 0.06
24676 C 74.52283547558599 90.94711762871452 43.83118712810216 C 0.0 **** -0.24
24677 H 75.32240900325502 90.36055134246604 44.28459599864084 H 0.0 **** 0.06
24678 H 74.71971114370689 91.06665309461818 42.765498773291256 H 0.0 **** 0.06
24679 H 74.47852396082212 91.92765635310383 44.30520262340025 H 0.0 **** 0.06
24680 H 73.57155636964697 90.43276597764529 43.9706965527227 H 0.0 **** 0.06
24681 C 58.8124061009598 0.3595517916456288 3.3678954468686015 C 0.0 **** -0.24
24682 H 59.05443511922797 1.374320842291354 3.054927373920279 H 0.0 **** 0.06
24683 H 59.53525446635772 0.027220299368224232 4.112875581436938 H 0.0 **** 0.06
24684 H 58.84735535458791 -0.3049956625628738 2.504890468177024 H 0.0 **** 0.06
24685 H 57.811235005274845 0.34147163698298755 3.7992838710697896 H 0.0 **** 0.06
24686 C 6.862516937725971 110.54770139624671 31.610823407439284 C 0.0 **** -0.24
24687 H 7.234778880519372 110.26160167817656 32.59419126823191 H 0.0 **** 0.06
24688 H 7.637497694323585 111.09616057299299 31.074568060247373 H 0.0 **** 0.06
24689 H 5.982912869029676 111.18044283178747 31.725205633614124 H 0.0 **** 0.06
24690 H 6.5955538770815565 109.65267960190367 31.04859558851352 H 0.0 **** 0.06
24691 C 1.699167657168573 68.47860126493055 0.014568202372046812 C 0.0 **** -0.24
24692 H 1.7495065997882335 67.39779185379916 -0.11859866728507029 H 0.0 **** 0.06
24693 H 2.6058977702369504 68.9365645049316 -0.3814060336963081 H 0.0 **** 0.06
24694 H 1.6095632435788474 68.70879893270427 1.0764088196533095 H 0.0 **** 0.06
24695 H 0.8316454877368358 68.86993150715477 -0.5160675217587283 H 0.0 **** 0.06
24696 C 68.44673953801635 111.6847203978363 90.62310657461865 C 0.0 **** -0.24
24697 H 67.81504456634377 110.901543163431 90.2051972393962 H 0.0 **** 0.06
24698 H 69.22044798674875 111.94966603708785 89.90201540597621 H 0.0 **** 0.06
24699 H 68.91224424498552 111.32470433844306 91.54069755348928 H 0.0 **** 0.06
24700 H 67.83978275664194 112.56218992963316 90.84479789522808 H 0.0 **** 0.06
24701 C 92.38936575013105 3.823992100916705 29.17977895903033 C 0.0 **** -0.24
24702 H 91.90341849908648 3.4633842317623067 28.272396622680247 H 0.0 **** 0.06
24703 H 91.9639290584428 4.787507243229179 29.46089209902729 H 0.0 **** 0.06
24704 H 93.45828209610761 3.9365648940937135 28.9985178167787 H 0.0 **** 0.06
24705 H 92.22986478445472 3.1070611965151613 29.985304204597668 H 0.0 **** 0.06
24706 C 37.24574403284572 36.39331370063621 41.072874208239426 C 0.0 **** -0.24
24707 H 36.198212551151045 36.31519867956274 40.780305788701845 H 0.0 **** 0.06
24708 H 37.404849269677555 35.84947857394786 42.004059620788425 H 0.0 **** 0.06
24709 H 37.50482589753804 37.44281692477563 41.21598959546346 H 0.0 **** 0.06
24710 H 37.87333496964759 35.96738247185036 40.29059833275767 H 0.0 **** 0.06
24711 C 5.105330820040043 63.753974233274896 106.01867182186379 C 0.0 **** -0.24
24712 H 4.016663094040293 63.752644801792606 105.96333454966503 H 0.0 **** 0.06
24713 H 5.422165860714657 63.255468733205525 106.9340412220772 H 0.0 **** 0.06
24714 H 5.467156057593533 64.781655388931 106.01919102835137 H 0.0 **** 0.06
24715 H 5.513099842471217 63.22556624848175 105.15648514925803 H 0.0 **** 0.06
24716 C 78.37160757562282 29.045775234834466 44.83859162293661 C 0.0 **** -0.24
24717 H 77.71802644044496 28.66847862084491 44.05200636871024 H 0.0 **** 0.06
24718 H 79.16847336330167 28.32528789708242 45.02618791712656 H 0.0 **** 0.06
24719 H 77.79364394878993 29.194305236130354 45.75024573728751 H 0.0 **** 0.06
24720 H 78.80659758101666 29.994754568635997 44.525016577364376 H 0.0 **** 0.06
24721 C 59.6522625451972 89.68384471336623 82.01134920726341 C 0.0 **** -0.24
24722 H 60.0346252079253 90.54471042583793 81.46146876820669 H 0.0 **** 0.06
24723 H 60.08402128464533 88.77055884999939 81.6005478218058 H 0.0 **** 0.06
24724 H 58.56678107256022 89.64639685431416 81.91844048017668 H 0.0 **** 0.06
24725 H 59.92505820299394 89.77364433463589 83.0623063347621 H 0.0 **** 0.06
24726 C 24.308109493065274 96.2698295900787 98.4968945815653 C 0.0 **** -0.24
24727 H 23.72708364271605 97.18204625750349 98.63288763107926 H 0.0 **** 0.06
24728 H 24.442987385586598 95.7772467414747 99.46013002125079 H 0.0 **** 0.06
24729 H 25.282444479057226 96.5187111577718 98.075868793186 H 0.0 **** 0.06
24730 H 23.779821772472214 95.60078745367537 97.81676506407436 H 0.0 **** 0.06
24731 C 79.32362175101014 57.94716451637482 38.52521636872228 C 0.0 **** -0.24
24732 H 79.3012844653874 57.913744792442195 39.61473671715072 H 0.0 **** 0.06
24733 H 79.05582971170688 56.96823663401996 38.12639802746111 H 0.0 **** 0.06
24734 H 80.32596808746993 58.214589374637974 38.19106798334633 H 0.0 **** 0.06
24735 H 78.61076083913383 58.69181002694453 38.17078614405824 H 0.0 **** 0.06
24736 C 82.80418846318844 14.333418163348455 33.80614890807854 C 0.0 **** -0.24
24737 H 83.030636127532 15.040721962196415 33.00813750662035 H 0.0 **** 0.06
24738 H 83.15825929470577 13.342391723601793 33.52443138738766 H 0.0 **** 0.06
24739 H 81.72661556855772 14.302270491648898 33.96870011463731 H 0.0 **** 0.06
24740 H 83.30015698473875 14.65048233427541 34.723236088377035 H 0.0 **** 0.06
24741 C 59.11120657253793 98.63336975411931 105.94558601404938 C 0.0 **** -0.24
24742 H 58.38262663943619 98.13726613650505 105.30437632051328 H 0.0 **** 0.06
24743 H 60.10115372574217 98.21652405300006 105.7591437749999 H 0.0 **** 0.06
24744 H 58.84208364270577 98.47775748104988 106.9903080143433 H 0.0 **** 0.06
24745 H 59.11925762218015 99.70107417321088 105.72743052350827 H 0.0 **** 0.06
24746 C 108.06960078728213 67.32521710932346 42.8822823224925 C 0.0 **** -0.24
24747 H 108.29962422953702 66.67176053482407 43.72360989893019 H 0.0 **** 0.06
24748 H 108.00396086666885 68.35610028685849 43.23169285798437 H 0.0 **** 0.06
24749 H 107.11754432303263 67.02919466621083 42.44157765860612 H 0.0 **** 0.06
24750 H 108.85710418990826 67.24370031094745 42.1336484037345 H 0.0 **** 0.06
24751 C 25.77607838469926 94.17536385085947 86.19845435436457 C 0.0 **** -0.24
24752 H 26.714571342693603 93.75354047883008 85.83610851424811 H 0.0 **** 0.06
24753 H 25.825601060786724 95.26353783905398 86.15322941600391 H 0.0 **** 0.06
24754 H 25.610399061668673 93.86004129431296 87.22883460601258 H 0.0 **** 0.06
24755 H 24.955103877455073 93.82222535245117 85.57347874120134 H 0.0 **** 0.06
24756 C 94.47973854209465 52.397320490105955 91.14374122380832 C 0.0 **** -0.24
24757 H 95.33723701878523 52.75970242080078 90.57602198387951 H 0.0 **** 0.06
24758 H 94.80230753366524 52.10902403632903 92.1431408780478 H 0.0 **** 0.06
24759 H 94.04721188348637 51.53393617461478 90.63710460365417 H 0.0 **** 0.06
24760 H 93.7330122511548 53.18799424310103 91.2161583983185 H 0.0 **** 0.06
24761 C 6.794657646968773 67.95748709202422 105.64853791781795 C 0.0 **** -0.24
24762 H 5.882586552031526 67.66972666753739 106.16963439533376 H 0.0 **** 0.06
24763 H 7.549169090961584 67.1816102276401 105.78210819610774 H 0.0 **** 0.06
24764 H 7.165027893828551 68.89863887323634 106.05602245088662 H 0.0 **** 0.06
24765 H 6.583228690381588 68.08025505876026 104.58627984371921 H 0.0 **** 0.06
24766 C 43.505740232132126 96.64271443138381 39.674047899027386 C 0.0 **** -0.24
24767 H 43.17273311218841 97.42621246143969 38.99321422203718 H 0.0 **** 0.06
24768 H 44.27721675951855 96.04512275310208 39.19033265259246 H 0.0 **** 0.06
24769 H 42.66039208778386 96.00526311111287 39.933737589823814 H 0.0 **** 0.06
24770 H 43.91058713052416 97.09646603732702 40.57885333623356 H 0.0 **** 0.06
24771 C 15.572311225354923 75.76267017922183 17.44927563325996 C 0.0 **** -0.24
24772 H 15.675771738774117 76.05165853571665 18.49501939940292 H 0.0 **** 0.06
24773 H 14.705769141628565 76.26516010477766 17.01793451792281 H 0.0 **** 0.06
24774 H 15.436714296387933 74.68274620518883 17.38310068440508 H 0.0 **** 0.06
24775 H 16.469547408387143 76.05067718455518 16.902699464384526 H 0.0 **** 0.06
24776 C 10.707441757602503 80.56237579562486 13.354764015088104 C 0.0 **** -0.24
24777 H 9.814610405570537 80.0206269195408 13.041360497494047 H 0.0 **** 0.06
24778 H 11.591767501608022 80.0672666724023 12.955098835299218 H 0.0 **** 0.06
24779 H 10.75885563740566 80.57786738553949 14.443743376953872 H 0.0 **** 0.06
24780 H 10.662424263834623 81.58489162478901 12.979333305936954 H 0.0 **** 0.06
24781 C 55.162997085159404 56.22164458562016 102.37607420895193 C 0.0 **** -0.24
24782 H 55.40309822749754 55.15892442045521 102.4043879145861 H 0.0 **** 0.06
24783 H 54.45306196491057 56.411362076401076 101.57054343203762 H 0.0 **** 0.06
24784 H 56.073277525987336 56.795549490945284 102.20122829483063 H 0.0 **** 0.06
24785 H 54.721602881317665 56.52027802369323 103.32676374830555 H 0.0 **** 0.06
24786 C 56.052006614371734 72.82467722470034 25.987545428528996 C 0.0 **** -0.24
24787 H 55.954303522600085 73.06126409002326 24.927746775869643 H 0.0 **** 0.06
24788 H 55.86643933236278 71.76120589041278 26.14096948958622 H 0.0 **** 0.06
24789 H 55.32677583449126 73.40643049175054 26.557373383702625 H 0.0 **** 0.06
24790 H 57.05930246496755 73.07102534012967 26.323834118861086 H 0.0 **** 0.06
24791 C 40.78933422486229 81.26634826163809 31.805352881672448 C 0.0 **** -0.24
24792 H 41.698279508530305 81.24924716627677 31.204616357620495 H 0.0 **** 0.06
24793 H 40.017127208757714 81.82934329235047 31.2810110895322 H 0.0 **** 0.06
24794 H 40.99710833366248 81.7423756338222 32.7645589853752 H 0.0 **** 0.06
24795 H 40.44525295800287 80.24591270922014 31.97359303210773 H 0.0 **** 0.06
24796 C 89.61230646117065 12.12069159547542 39.8402852925893 C 0.0 **** -0.24
24797 H 89.43204827285234 11.046805274168719 39.7786928866316 H 0.0 **** 0.06
24798 H 89.8718876155965 12.50259879955604 38.8530518409726 H 0.0 **** 0.06
24799 H 90.43422357242844 12.311336828406354 40.53096835622006 H 0.0 **** 0.06
24800 H 88.71265356554807 12.61964948841603 40.199342433136565 H 0.0 **** 0.06
24801 C 28.501283862318417 38.326180398946605 80.98386185674894 C 0.0 **** -0.24
24802 H 28.304993786670053 38.56585918906286 79.93885435984276 H 0.0 **** 0.06
24803 H 27.57810928181928 37.993279033074714 81.45901636469458 H 0.0 **** 0.06
24804 H 28.874593903547293 39.213024378040046 81.49657600232143 H 0.0 **** 0.06
24805 H 29.246114916283176 37.53236844236628 81.04146112310582 H 0.0 **** 0.06
24806 C 42.07358812363672 29.823398017380953 43.988509004719276 C 0.0 **** -0.24
24807 H 41.6569027764054 30.567388556572638 44.66793363362078 H 0.0 **** 0.06
24808 H 41.58181393468996 28.86453751341918 44.15484035228249 H 0.0 **** 0.06
24809 H 43.14271696973979 29.71966709171903 44.173940392759675 H 0.0 **** 0.06
24810 H 41.911606087095315 30.140388680127188 42.958148803589694 H 0.0 **** 0.06
24811 C 28.623958543048275 13.6906476900852 24.93910374961746 C 0.0 **** -0.24
24812 H 28.24615739939864 12.723872033391416 24.606747764524698 H 0.0 **** 0.06
24813 H 28.833389481664142 14.316543288196215 24.071665123948037 H 0.0 **** 0.06
24814 H 29.540613029183334 13.54428521819952 25.511483900650717 H 0.0 **** 0.06
24815 H 27.876457107997794 14.17579609526328 25.567519274614313 H 0.0 **** 0.06
24816 C 109.8716905267409 7.988028002502858 98.12093675298266 C 0.0 **** -0.24
24817 H 109.83149830035363 9.064371995138771 98.2882525786323 H 0.0 **** 0.06
24818 H 108.9353137992564 7.534593567744309 98.44624312310845 H 0.0 **** 0.06
24819 H 110.69857415071723 7.563330882627355 98.69103874053434 H 0.0 **** 0.06
24820 H 110.02282697327053 7.791143670501896 97.05927590336765 H 0.0 **** 0.06
24821 C 59.2891037991214 17.39801966660549 39.146046228591366 C 0.0 **** -0.24
24822 H 58.833973878513895 17.172309854431393 40.110786227746786 H 0.0 **** 0.06
24823 H 59.88812006663212 18.30433020380374 39.23047411670685 H 0.0 **** 0.06
24824 H 58.506275830164604 17.546999797035856 38.40190731776428 H 0.0 **** 0.06
24825 H 59.92597548023205 16.56687688180702 38.84252597071999 H 0.0 **** 0.06
24826 C 98.62885031497407 31.132373353566805 5.23683319430344 C 0.0 **** -0.24
24827 H 97.99909849235905 30.560117462703552 4.555006768340645 H 0.0 **** 0.06
24828 H 99.07799157683343 31.968610202807184 4.7006490171043716 H 0.0 **** 0.06
24829 H 99.4151074777819 30.48818573552321 5.629885801179265 H 0.0 **** 0.06
24830 H 98.02323083528495 31.51013775043998 6.059782413831538 H 0.0 **** 0.06
24831 C 13.951291570832602 85.5831460237107 102.6517481131167 C 0.0 **** -0.24
24832 H 14.239387255671772 84.62740424731396 102.21492792726764 H 0.0 **** 0.06
24833 H 14.770647726986414 86.29425768841625 102.54239945400502 H 0.0 **** 0.06
24834 H 13.728511933658417 85.44574923561782 103.71036315475692 H 0.0 **** 0.06
24835 H 13.067302940372457 85.96536513350665 102.140524984801 H 0.0 **** 0.06
24836 C 80.76812569160029 24.48613994887583 76.89045639683383 C 0.0 **** -0.24
24837 H 80.09680625006595 25.325081614217936 77.07682845236462 H 0.0 **** 0.06
24838 H 80.23600922354848 23.549871645164615 77.06247728988177 H 0.0 **** 0.06
24839 H 81.62225071660905 24.54869703149535 77.56384363623368 H 0.0 **** 0.06
24840 H 81.11611209370045 24.522615292971807 75.85809628135613 H 0.0 **** 0.06
24841 C 48.85278858488064 78.05864977052718 109.03099661210042 C 0.0 **** -0.24
24842 H 48.772825874387735 78.74524193678454 108.18816296553894 H 0.0 **** 0.06
24843 H 49.57353885755822 78.44877218309338 109.75039636210707 H 0.0 **** 0.06
24844 H 49.186368710989086 77.08380214598307 108.67417614644475 H 0.0 **** 0.06
24845 H 47.879442796191626 77.95625556862731 109.50995563600871 H 0.0 **** 0.06
24846 C 45.76244874876724 3.032304180070412 102.32126978480369 C 0.0 **** -0.24
24847 H 45.9855101050421 2.883637559434078 103.37814409088827 H 0.0 **** 0.06
24848 H 45.75885864394471 4.099658865820572 102.09826636338133 H 0.0 **** 0.06
24849 H 44.78435285579941 2.609514102766184 102.09348409735139 H 0.0 **** 0.06
24850 H 46.52326343636153 2.537148170657474 101.71734183896291 H 0.0 **** 0.06
24851 C 111.15895582491191 90.55252917180155 38.94986046831167 C 0.0 **** -0.24
24852 H 111.2106094846319 91.23814123675857 38.104351533994816 H 0.0 **** 0.06
24853 H 111.32037539160257 89.53171149051533 38.600408760500045 H 0.0 **** 0.06
24854 H 110.17777093475155 90.62566471184718 39.41851468146723 H 0.0 **** 0.06
24855 H 111.9288579896147 90.81358959602633 39.677047233967585 H 0.0 **** 0.06
24856 C 65.37784778547703 84.61642596750704 78.54902057587393 C 0.0 **** -0.24
24857 H 65.5980923648201 85.4198424216874 77.84653806356448 H 0.0 **** 0.06
24858 H 66.31031412912671 84.2189361913982 78.95124172396379 H 0.0 **** 0.06
24859 H 64.83671845529415 83.82203832109889 78.03426262570346 H 0.0 **** 0.06
24860 H 64.76539576368924 85.00397943797356 79.36284868449613 H 0.0 **** 0.06
24861 C 56.292649560470124 111.99695501365154 55.399402587201934 C 0.0 **** -0.24
24862 H 56.65981206396384 113.01166529642967 55.24336679999752 H 0.0 **** 0.06
24863 H 56.16831803892592 111.50394757420449 54.43422548461763 H 0.0 **** 0.06
24864 H 55.33306791974138 112.03379365594579 55.91436504766219 H 0.0 **** 0.06
24865 H 57.00908777782092 111.44069460454355 56.002703463274685 H 0.0 **** 0.06
24866 C 45.84305304127491 19.086662685921766 50.43139609116328 C 0.0 **** -0.24
24867 H 45.20228060546151 19.967829860721707 50.47487634535132 H 0.0 **** 0.06
24868 H 46.15173537692061 18.813159620588095 51.439822894078446 H 0.0 **** 0.06
24869 H 46.72400086890849 19.30961240483532 49.82939298310208 H 0.0 **** 0.06
24870 H 45.29440479077107 18.260162366462367 49.98130206827905 H 0.0 **** 0.06
24871 C 24.581104923196108 19.3340192925875 48.815028486441065 C 0.0 **** -0.24
24872 H 24.85985772018023 19.623810977774525 49.82730806742134 H 0.0 **** 0.06
24873 H 24.291731443494996 18.28320709595019 48.804727839161615 H 0.0 **** 0.06
24874 H 25.430891545757845 19.483020134982297 48.14786890232793 H 0.0 **** 0.06
24875 H 23.743792573355847 19.945514760206493 48.47967095115743 H 0.0 **** 0.06
24876 C 54.10360355231347 45.03758514086345 105.36139798707774 C 0.0 **** -0.24
24877 H 55.0141734631045 44.696347233861054 104.86873123421947 H 0.0 **** 0.06
24878 H 54.05126600991059 46.12502140246377 105.31652593436189 H 0.0 **** 0.06
24879 H 54.11240882936815 44.71575208630999 106.4029983755126 H 0.0 **** 0.06
24880 H 53.2367820348594 44.610407449966736 104.8571261658359 H 0.0 **** 0.06
24881 C 73.53754864533687 14.933557171538325 30.620098457593805 C 0.0 **** -0.24
24882 H 72.98934587703172 15.245236455197059 29.730350623764593 H 0.0 **** 0.06
24883 H 74.5902359355282 15.196091075827795 30.507604457065334 H 0.0 **** 0.06
24884 H 73.4421992871014 13.855069940807525 30.745554326172126 H 0.0 **** 0.06
24885 H 73.12780430801718 15.44004910762726 31.493933042195785 H 0.0 **** 0.06
24886 C 108.06929730831885 15.99202387376614 88.56193809751997 C 0.0 **** -0.24
24887 H 108.41805527877341 16.849017027575773 89.13860093733427 H 0.0 **** 0.06
24888 H 108.82963786406518 15.211131394371542 88.57581486461709 H 0.0 **** 0.06
24889 H 107.8806973107906 16.298824706549016 87.53303543304591 H 0.0 **** 0.06
24890 H 107.14783874963288 15.609913087673245 89.00097436823913 H 0.0 **** 0.06
24891 C 86.40696056400665 71.90636900242015 73.80566719701073 C 0.0 **** -0.24
24892 H 86.09371702599307 72.49871576215801 72.94569672254798 H 0.0 **** 0.06
24893 H 86.90628866168663 72.55150437807694 74.52842108059787 H 0.0 **** 0.06
24894 H 87.09478718589534 71.1265018159169 73.4779308185505 H 0.0 **** 0.06
24895 H 85.53288937188927 71.4487452721113 74.26889549545695 H 0.0 **** 0.06
24896 C 84.39125573253983 2.7413878698092446 38.62764466820653 C 0.0 **** -0.24
24897 H 83.8535607758509 3.401096355031598 39.30687592538604 H 0.0 **** 0.06
24898 H 85.45265248725724 2.9906490700204245 38.64396096406526 H 0.0 **** 0.06
24899 H 84.00457263753759 2.8660146870506793 37.61669824454768 H 0.0 **** 0.06
24900 H 84.25642028942565 1.7067334091996713 38.94338183087082 H 0.0 **** 0.06
24901 C 87.39490981369181 85.18326562946484 31.264839646503788 C 0.0 **** -0.24
24902 H 87.35353698468609 84.74117944317743 32.25948701634002 H 0.0 **** 0.06
24903 H 86.50344181378938 84.90128016509638 30.70483930957485 H 0.0 **** 0.06
24904 H 88.28178147704955 84.8233191169185 30.74316584161744 H 0.0 **** 0.06
24905 H 87.4419016003726 86.26925621611392 31.351613287313967 H 0.0 **** 0.06
24906 C 81.57330312862842 14.15835653181135 30.263276577623515 C 0.0 **** -0.24
24907 H 82.21079896969627 13.922675554728869 31.115083413944433 H 0.0 **** 0.06
24908 H 80.60335055098906 13.675987063712427 30.392153248271057 H 0.0 **** 0.06
24909 H 82.04086460207887 13.79676028929832 29.348153229273407 H 0.0 **** 0.06
24910 H 81.43610355128209 15.238424512312534 30.2000476682461 H 0.0 **** 0.06
24911 C 44.135047777832284 51.7759125696447 68.79638170148093 C 0.0 **** -0.24
24912 H 43.580267826587686 50.97633624055209 68.30505766172908 H 0.0 **** 0.06
24913 H 43.8191085953209 51.85063168444 69.83689161215409 H 0.0 **** 0.06
24914 H 43.939287276790054 52.72014211500834 68.28808966918152 H 0.0 **** 0.06
24915 H 45.202537521012744 51.55556284740243 68.75533133492993 H 0.0 **** 0.06
24916 C 22.608976436149817 78.06016618349935 104.25395410808738 C 0.0 **** -0.24
24917 H 22.754012299303525 77.03590578444476 103.91039097349767 H 0.0 **** 0.06
24918 H 23.54126876582916 78.4374140015156 104.6739737196751 H 0.0 **** 0.06
24919 H 21.832248782107484 78.07976794630565 105.01806619484125 H 0.0 **** 0.06
24920 H 22.308349275860905 78.68535731591538 103.4136549321455 H 0.0 **** 0.06
24921 C 58.81858878495047 52.570124885717796 60.95393451700559 C 0.0 **** -0.24
24922 H 58.159088843293155 52.218645394115285 61.747438382778 H 0.0 **** 0.06
24923 H 59.275305817154795 53.514588731206935 61.253582838536886 H 0.0 **** 0.06
24924 H 58.241234158996384 52.718862802067456 60.041323389420256 H 0.0 **** 0.06
24925 H 59.597534681859194 51.82996276487828 60.77446407167477 H 0.0 **** 0.06
24926 C 35.076446916756 106.5227143378591 103.539100337706 C 0.0 **** -0.24
24927 H 34.828668998998324 105.66917596458222 102.90825350492426 H 0.0 **** 0.06
24928 H 34.99376701858375 106.23549624484167 104.58758363375492 H 0.0 **** 0.06
24929 H 34.385974989918594 107.34035710664398 103.33119354588783 H 0.0 **** 0.06
24930 H 36.09597152135291 106.84481556741656 103.32939646430557 H 0.0 **** 0.06
24931 C 17.803258837122797 70.73202716459329 107.31911770402726 C 0.0 **** -0.24
24932 H 18.447999583549745 71.51239455737755 107.7204422074416 H 0.0 **** 0.06
24933 H 17.79830233150355 69.87883161648861 107.99912896038535 H 0.0 **** 0.06
24934 H 18.175853176331685 70.41800394965458 106.3438427188557 H 0.0 **** 0.06
24935 H 16.788581245254733 71.11706943662486 107.21372192463261 H 0.0 **** 0.06
24936 C 55.176308750134105 18.55401855092623 83.62618155667928 C 0.0 **** -0.24
24937 H 55.24035447019808 17.509177417462297 83.92756745158638 H 0.0 **** 0.06
24938 H 55.94887771635158 19.128194644389367 84.13783320443292 H 0.0 **** 0.06
24939 H 54.194888764912214 18.948639267695214 83.89068058458619 H 0.0 **** 0.06
24940 H 55.31977813526428 18.63002590309317 82.54754310698851 H 0.0 **** 0.06
24941 C 94.94410393898372 95.0424392587571 18.43555685083654 C 0.0 **** -0.24
24942 H 94.82472980141125 94.2231287120457 17.726359096665774 H 0.0 **** 0.06
24943 H 95.13617447823529 94.63703607665815 19.42955364356713 H 0.0 **** 0.06
24944 H 94.03343058481116 95.64014786239903 18.4562158627509 H 0.0 **** 0.06
24945 H 95.78217146586064 95.66812940035453 18.12958623042971 H 0.0 **** 0.06
24946 C 14.161900885344906 31.686910581158884 36.02044941945451 C 0.0 **** -0.24
24947 H 14.692346954025822 31.072288247586187 35.29373923227439 H 0.0 **** 0.06
24948 H 14.33140480928921 32.74136705658358 35.79714808629592 H 0.0 **** 0.06
24949 H 14.529142380075015 31.464074843579716 37.02170974938298 H 0.0 **** 0.06
24950 H 13.094858912899767 31.471850354387392 35.968730141841945 H 0.0 **** 0.06
24951 C 89.89791165261431 4.80804625162321 109.7470984006016 C 0.0 **** -0.24
24952 H 89.83199694256513 5.210571177097393 110.75885451445569 H 0.0 **** 0.06
24953 H 90.9246344020782 4.889606723831562 109.39162600779092 H 0.0 **** 0.06
24954 H 89.23789640982332 5.373154550820601 109.08861232955495 H 0.0 **** 0.06
24955 H 89.5963325935675 3.7603948636762397 109.75366014534252 H 0.0 **** 0.06
24956 C 46.362811891940716 111.55419522275956 45.48661704279765 C 0.0 **** -0.24
24957 H 47.07052670213467 110.7647480978739 45.23603111976686 H 0.0 **** 0.06
24958 H 46.63668453140681 111.996654746422 46.44488620701115 H 0.0 **** 0.06
24959 H 45.35939547500063 111.1346586625834 45.55427737562564 H 0.0 **** 0.06
24960 H 46.384800654502 112.32176000832042 44.712217757021556 H 0.0 **** 0.06
24961 C 53.55089857930305 92.04266244908646 89.44896873895024 C 0.0 **** -0.24
24962 H 54.12380476198019 92.05388189839735 88.52171148101274 H 0.0 **** 0.06
24963 H 54.15922711155129 92.45283113247913 90.2558240584674 H 0.0 **** 0.06
24964 H 53.270341453238316 91.01733303140037 89.69088752411184 H 0.0 **** 0.06
24965 H 52.65159177373941 92.6471007738408 89.32838681187866 H 0.0 **** 0.06
24966 C 10.801066822883556 31.312318336159095 65.46946282312564 C 0.0 **** -0.24
24967 H 11.036864278940115 30.6026054692446 64.67625123898137 H 0.0 **** 0.06
24968 H 10.143233226663924 32.0873579956364 65.07870744792461 H 0.0 **** 0.06
24969 H 11.72222851653568 31.766308406875375 65.83464706981857 H 0.0 **** 0.06
24970 H 10.304785041530124 30.790773784414682 66.28727026234247 H 0.0 **** 0.06
24971 C 65.0920998672417 112.61877110865848 63.05782613825295 C 0.0 **** -0.24
24972 H 65.63384581667475 112.3204026535856 62.16047561531269 H 0.0 **** 0.06
24973 H 65.46112051864813 112.04898825975167 63.912078907612596 H 0.0 **** 0.06
24974 H 64.0280741651901 112.42214444885852 62.92279760342649 H 0.0 **** 0.06
24975 H 65.24491447048862 113.6829566443171 63.23751819185645 H 0.0 **** 0.06
24976 C 99.74405680531163 53.18446841864156 80.9624557614643 C 0.0 **** -0.24
24977 H 100.7861259052238 53.08509154471349 80.65781064755615 H 0.0 **** 0.06
24978 H 99.1950159455007 53.74225803472987 80.20233380005229 H 0.0 **** 0.06
24979 H 99.69301614261781 53.71847571978634 81.91213967287996 H 0.0 **** 0.06
24980 H 99.30242436680419 52.19574975125306 81.07795664155876 H 0.0 **** 0.06
24981 C 57.18325869591308 1.1799026215761748 109.40433009629054 C 0.0 **** -0.24
24982 H 57.38899896098093 0.2155561349200097 108.93843927504386 H 0.0 **** 0.06
24983 H 56.40614827540179 1.0591524259624192 110.16024231035443 H 0.0 **** 0.06
24984 H 56.84521744734718 1.884451857080375 108.64477045426987 H 0.0 **** 0.06
24985 H 58.0909985454843 1.55792633718396 109.87295332962525 H 0.0 **** 0.06
24986 C 6.063025817564565 94.98386353316954 20.245800773807304 C 0.0 **** -0.24
24987 H 5.843952289799745 95.24350531637327 19.209865761377813 H 0.0 **** 0.06
24988 H 6.82514916051413 94.20554568687982 20.27152397139224 H 0.0 **** 0.06
24989 H 5.155116769139866 94.62097704935297 20.728249719967863 H 0.0 **** 0.06
24990 H 6.426178940453184 95.86658987992263 20.77270629717205 H 0.0 **** 0.06
24991 C 38.31505422980567 24.38184953730635 29.766552675929972 C 0.0 **** -0.24
24992 H 38.18743561585466 24.727909686637247 30.792032186495675 H 0.0 **** 0.06
24993 H 37.5693951211922 23.6173270386532 29.54642480162127 H 0.0 **** 0.06
24994 H 39.3136811559154 23.961515614219564 29.647262907388722 H 0.0 **** 0.06
24995 H 38.189252738977814 25.22042390071192 29.081812286952413 H 0.0 **** 0.06
24996 C 103.20092970652172 99.83585736131971 96.28331822182446 C 0.0 **** -0.24
24997 H 103.73142401830549 100.58661376902415 96.86799670049794 H 0.0 **** 0.06
24998 H 103.71365137706633 98.87768115033435 96.37102374940645 H 0.0 **** 0.06
24999 H 103.17704362694127 100.1410811656196 95.23653822948967 H 0.0 **** 0.06
25000 H 102.1812856305769 99.73832837674325 96.65603318698524 H 0.0 **** 0.06
25001 C 31.59604971568234 62.56077756159542 26.670598499373895 C 0.0 **** -0.24
25002 H 32.237833623621185 62.7770637319044 25.815901384314117 H 0.0 **** 0.06
25003 H 31.128208323946893 63.483497365490656 27.015176556574602 H 0.0 **** 0.06
25004 H 32.19329803990979 62.132778183236006 27.474705002764757 H 0.0 **** 0.06
25005 H 30.82417923118325 61.85073779861491 26.3733546756644 H 0.0 **** 0.06
25006 C 35.97377171415627 56.305374354799284 90.57699430500352 C 0.0 **** -0.24
25007 H 35.340394987717076 55.69014760552355 89.93795177445904 H 0.0 **** 0.06
25008 H 36.65406227158975 56.89056679870971 89.95875251185836 H 0.0 **** 0.06
25009 H 36.54887899249557 55.66285904390879 91.24427769704056 H 0.0 **** 0.06
25010 H 35.35014333988791 56.976076288318545 91.16705098857784 H 0.0 **** 0.06
25011 C 35.45149692325769 105.34289905327913 47.4837860267759 C 0.0 **** -0.24
25012 H 35.247120094996 105.31072798626221 48.5537582218779 H 0.0 **** 0.06
25013 H 36.29108410827413 104.68691930622154 47.25450824358387 H 0.0 **** 0.06
25014 H 35.6986110709894 106.36386281556321 47.19220412808474 H 0.0 **** 0.06
25015 H 34.569994345234875 105.01179625350821 46.93585677718974 H 0.0 **** 0.06
25016 C 44.64382281628849 91.67561044526076 57.87780979209791 C 0.0 **** -0.24
25017 H 44.70136857114113 90.58811645652372 57.83966977442821 H 0.0 **** 0.06
25018 H 44.370082561060315 92.0592026164403 56.893768715890296 H 0.0 **** 0.06
25019 H 45.61271507103828 92.08092943890108 58.16963286711154 H 0.0 **** 0.06
25020 H 43.889729327861914 91.974717662932 58.60650131125745 H 0.0 **** 0.06
25021 C 60.9370206088235 99.48325449896214 25.58983441693418 C 0.0 **** -0.24
25022 H 59.89497312748091 99.68465825119333 25.34482855694058 H 0.0 **** 0.06
25023 H 60.991329875324254 98.95823128596342 26.544019710195776 H 0.0 **** 0.06
25024 H 61.48143132943255 100.42557241053282 25.661746799596813 H 0.0 **** 0.06
25025 H 61.38163905853594 98.86656376657649 24.808192291047394 H 0.0 **** 0.06
25026 C 17.34225478731571 80.2648908582124 47.1422238386495 C 0.0 **** -0.24
25027 H 17.358677745100056 81.34930460898408 47.245279269740934 H 0.0 **** 0.06
25028 H 17.042582239971157 79.81536631748855 48.08887659288314 H 0.0 **** 0.06
25029 H 18.336597030572165 79.91040250549364 46.86988044123456 H 0.0 **** 0.06
25030 H 16.63116213361936 79.98449000088337 46.36485905073937 H 0.0 **** 0.06
25031 C 85.21218145042405 9.723510870584704 41.15981547137407 C 0.0 **** -0.24
25032 H 84.20788143960479 9.840899312205721 40.75270144079498 H 0.0 **** 0.06
25033 H 85.21634010877978 10.023058556067795 42.20760135167634 H 0.0 **** 0.06
25034 H 85.90733671836588 10.348896743706803 40.59977614542519 H 0.0 **** 0.06
25035 H 85.51655145178964 8.679624433708412 41.07809980106916 H 0.0 **** 0.06
25036 C 28.222111443674834 95.50917392227618 83.097873853604 C 0.0 **** -0.24
25037 H 27.983771620991064 94.79261579162124 82.31245746120825 H 0.0 **** 0.06
25038 H 27.571368690412726 96.37928286535859 83.00530094196216 H 0.0 **** 0.06
25039 H 29.26151276442451 95.82235101097098 83.00076884993902 H 0.0 **** 0.06
25040 H 28.071659968645207 95.04417714945208 84.0715589554587 H 0.0 **** 0.06
25041 C 15.178336224197167 66.7924408030841 110.27958008051709 C 0.0 **** -0.24
25042 H 14.358596750816787 66.32037917553797 110.82100172468128 H 0.0 **** 0.06
25043 H 16.104163657450798 66.67064687447899 110.84368495704308 H 0.0 **** 0.06
25044 H 14.966805258844005 67.85458338616954 110.15257919185942 H 0.0 **** 0.06
25045 H 15.284675519986905 66.32380367451623 109.30132675208347 H 0.0 **** 0.06
25046 C 54.60718917238305 33.07192926488722 6.76308095348773 C 0.0 **** -0.24
25047 H 54.69963911127067 33.82016371932369 7.5501601032234475 H 0.0 **** 0.06
25048 H 54.181203658988 32.15886862873438 7.178667277579024 H 0.0 **** 0.06
25049 H 55.59134358111931 32.85802977182544 6.3477396195627875 H 0.0 **** 0.06
25050 H 53.9553179270438 33.451843363275344 5.9767664385797445 H 0.0 **** 0.06
25051 C 97.34078329478646 23.746571868637986 34.88608392241601 C 0.0 **** -0.24
25052 H 97.29721094621198 23.80927800060047 35.97331102348343 H 0.0 **** 0.06
25053 H 97.5016185607708 22.710352971627643 34.58715440903979 H 0.0 **** 0.06
25054 H 98.16245181680668 24.363019796772434 34.51956208136792 H 0.0 **** 0.06
25055 H 96.40155524956197 24.104916934177112 34.46378553525092 H 0.0 **** 0.06
25056 C 108.89467237851483 27.299084431576603 69.78583469767969 C 0.0 **** -0.24
25057 H 108.3899569284552 28.10118188156892 69.24825928232323 H 0.0 **** 0.06
25058 H 108.43060495013495 26.34475132973148 69.53286976784418 H 0.0 **** 0.06
25059 H 108.81142424336167 27.471385785747174 70.8586806108813 H 0.0 **** 0.06
25060 H 109.94630202979334 27.278426985236734 69.50195149933418 H 0.0 **** 0.06
25061 C 100.96090449924057 81.5503363672155 65.65093980994979 C 0.0 **** -0.24
25062 H 99.94710332173238 81.64472104436936 66.03779378229024 H 0.0 **** 0.06
25063 H 101.17903938935424 82.39408350872651 64.99465904733151 H 0.0 **** 0.06
25064 H 101.05147362873512 80.62006876957344 65.0899880931187 H 0.0 **** 0.06
25065 H 101.66712714166803 81.54376367085717 66.481062546088 H 0.0 **** 0.06
25066 C 77.50921739431183 93.23325862376734 105.37069883796349 C 0.0 **** -0.24
25067 H 77.41972437184572 92.14705252446484 105.36987158910028 H 0.0 **** 0.06
25068 H 77.9721657188839 93.5607759699019 104.4405082365067 H 0.0 **** 0.06
25069 H 78.12584656953277 93.54631711515685 106.21374111414593 H 0.0 **** 0.06
25070 H 76.51849373249127 93.67869455206522 105.46142289012914 H 0.0 **** 0.06
25071 C 21.924290123568426 93.9159582289029 105.14277868737042 C 0.0 **** -0.24
25072 H 21.166331662874654 94.14654187977109 104.39483852681792 H 0.0 **** 0.06
25073 H 21.833999054476692 94.61104277229822 105.97766694526797 H 0.0 **** 0.06
25074 H 22.914950130115017 94.00887425106947 104.69667913856858 H 0.0 **** 0.06
25075 H 21.781575448019794 92.89599965584077 105.50179331634018 H 0.0 **** 0.06
25076 C 4.046682670039132 88.29231930785326 49.190518298258326 C 0.0 **** -0.24
25077 H 3.9318683205678013 89.15914781196273 49.84045316898204 H 0.0 **** 0.06
25078 H 4.710031313193539 88.5440413211694 48.36287948140631 H 0.0 **** 0.06
25079 H 3.071804258078089 88.00160380127048 48.79861143680085 H 0.0 **** 0.06
25080 H 4.470515901150463 87.4655214512145 49.75885620863455 H 0.0 **** 0.06
25081 C 16.830379807712347 91.18211795121269 99.94065016512062 C 0.0 **** -0.24
25082 H 17.15134297995843 92.06954402567669 100.48651371694174 H 0.0 **** 0.06
25083 H 17.43518655730486 90.3280931484567 100.24800485843397 H 0.0 **** 0.06
25084 H 16.955754854946235 91.35036849962157 98.87053461014719 H 0.0 **** 0.06
25085 H 15.781245488753768 90.98249325937198 100.15618784107113 H 0.0 **** 0.06
25086 C 42.34345948985461 48.42191011841979 35.02153989320021 C 0.0 **** -0.24
25087 H 42.91866169590967 49.18371387854688 35.54688815039884 H 0.0 **** 0.06
25088 H 42.64693268792817 47.4336362825382 35.36966104878229 H 0.0 **** 0.06
25089 H 42.527105691834045 48.50275076882477 33.9504716347119 H 0.0 **** 0.06
25090 H 41.281839629712366 48.56651971007213 35.22100093531202 H 0.0 **** 0.06
25091 C 18.462017338009247 92.44535535878978 74.32975486973203 C 0.0 **** -0.24
25092 H 19.44171530485312 91.97546172104072 74.24867959347941 H 0.0 **** 0.06
25093 H 18.094059219578384 92.69008370322334 73.33285752988459 H 0.0 **** 0.06
25094 H 18.544146655276393 93.35715296860747 74.92149492545173 H 0.0 **** 0.06
25095 H 17.76901395697203 91.75798046334472 74.8140640796286 H 0.0 **** 0.06
25096 C 87.5291850698604 35.65794603027415 74.86394119325374 C 0.0 **** -0.24
25097 H 87.32174277249271 36.08622028646336 73.88307052374023 H 0.0 **** 0.06
25098 H 86.6126711511098 35.64378218591104 75.45443510188858 H 0.0 **** 0.06
25099 H 88.28049886900678 36.26229878631348 75.37159922098101 H 0.0 **** 0.06
25100 H 87.90123987102183 34.64066208836873 74.7448531565218 H 0.0 **** 0.06
25101 C 62.26153956503105 91.79787449114792 67.35195212642964 C 0.0 **** -0.24
25102 H 61.548562568122186 91.35187671778874 68.04465994402483 H 0.0 **** 0.06
25103 H 62.12300227398574 92.87884332707438 67.3331856453384 H 0.0 **** 0.06
25104 H 62.09917030040817 91.39367895343923 66.35266308364066 H 0.0 **** 0.06
25105 H 63.27663535841777 91.56714919685425 67.67657315358576 H 0.0 **** 0.06
25106 C 103.6758767369277 10.890741667880377 64.85068025274632 C 0.0 **** -0.24
25107 H 102.68685071451324 10.914774508361859 64.39349394458154 H 0.0 **** 0.06
25108 H 104.37231408028924 10.381346908536358 64.18425964589898 H 0.0 **** 0.06
25109 H 103.62382078310216 10.357068252259126 65.79974940784828 H 0.0 **** 0.06
25110 H 104.01882908981591 11.910041157689818 65.02547604476703 H 0.0 **** 0.06
25111 C 6.9065602046379695 84.05616766257239 34.719876216269256 C 0.0 **** -0.24
25112 H 7.579970848598078 83.20474109946312 34.62919425254543 H 0.0 **** 0.06
25113 H 6.043746768148569 83.77428513396026 35.32414160236692 H 0.0 **** 0.06
25114 H 6.571041793556924 84.36135027201735 33.72814872118232 H 0.0 **** 0.06
25115 H 7.430196314387791 84.88503715911475 35.1971277455705 H 0.0 **** 0.06
25116 C 45.87598360651498 37.981217265709134 24.089335558953746 C 0.0 **** -0.24
25117 H 46.00164247177358 37.26793828697626 23.274527999748738 H 0.0 **** 0.06
25118 H 46.29416818978564 38.94480281250863 23.797351025184156 H 0.0 **** 0.06
25119 H 46.394053426195086 37.61368777432055 24.975427627936075 H 0.0 **** 0.06
25120 H 44.81494481054679 38.096184646049906 24.310420504370548 H 0.0 **** 0.06
25121 C 93.2212142509338 25.567449396269804 34.29853204728809 C 0.0 **** -0.24
25122 H 92.26719505170735 26.08288609557558 34.41181398700053 H 0.0 **** 0.06
25123 H 93.2165585229611 24.995481835875395 33.370466939229885 H 0.0 **** 0.06
25124 H 93.3713222087751 24.891702782255823 35.14071404857057 H 0.0 **** 0.06
25125 H 94.02764287736866 26.299113261373513 34.2709068166229 H 0.0 **** 0.06
25126 C 80.42151521499301 75.97546347586055 18.061299257894262 C 0.0 **** -0.24
25127 H 81.37939074568737 76.30578210898386 17.659670761803113 H 0.0 **** 0.06
25128 H 79.62301836470087 76.59630202640574 17.654670828093032 H 0.0 **** 0.06
25129 H 80.43413561328896 76.06452852687124 19.148343703080116 H 0.0 **** 0.06
25130 H 80.25021729732441 74.93487251847225 17.784602838883785 H 0.0 **** 0.06
25131 C 47.433546857152976 83.67160703550044 33.57587024511338 C 0.0 **** -0.24
25132 H 46.974879219191905 84.25555006557968 32.778238816662224 H 0.0 **** 0.06
25133 H 47.328195301943026 82.60949311309082 33.35521793425073 H 0.0 **** 0.06
25134 H 46.939570709959526 83.89751962920272 34.520935037093125 H 0.0 **** 0.06
25135 H 48.49154219751699 83.92386533412858 33.64908919244755 H 0.0 **** 0.06
25136 C 35.1731910859948 85.52276608442148 82.46111783409864 C 0.0 **** -0.24
25137 H 35.51498106883986 85.17553559764977 81.48628658576561 H 0.0 **** 0.06
25138 H 36.035285775019474 85.70409278307119 83.10430976541099 H 0.0 **** 0.06
25139 H 34.53462743843704 84.76398217731372 82.91438474122415 H 0.0 **** 0.06
25140 H 34.60967163701258 86.44764819875621 82.34080051540155 H 0.0 **** 0.06
25141 C 28.99737111958717 19.096140408309168 40.571599654895294 C 0.0 **** -0.24
25142 H 28.822002916650092 19.86175956661245 41.3279611683144 H 0.0 **** 0.06
25143 H 28.073513720367913 18.548133739684772 40.388680163616215 H 0.0 **** 0.06
25144 H 29.765054455157326 18.408028855288222 40.9245106007227 H 0.0 **** 0.06
25145 H 29.329745078161864 19.569046575067915 39.647371484692286 H 0.0 **** 0.06
25146 C 11.662180399033701 111.8657791802149 55.090902029575034 C 0.0 **** -0.24
25147 H 11.108855072405376 111.78000170195449 54.15574926497152 H 0.0 **** 0.06
25148 H 12.726000690417536 111.96438934347043 54.8751642115636 H 0.0 **** 0.06
25149 H 11.494165831690879 110.97458449210347 55.69567019040707 H 0.0 **** 0.06
25150 H 11.318376321040034 112.74517622494707 55.63593965392599 H 0.0 **** 0.06
25151 C 15.137607690328302 7.800384364142275 4.864958303270555 C 0.0 **** -0.24
25152 H 14.089776933505473 8.023983376381949 4.666236038035549 H 0.0 **** 0.06
25153 H 15.534106239129105 8.523167055691516 5.578862035113929 H 0.0 **** 0.06
25154 H 15.704621673356339 7.8578000525286456 3.936103663721923 H 0.0 **** 0.06
25155 H 15.222091022371067 6.795801493143486 5.27979589715207 H 0.0 **** 0.06
25156 C 7.638377482583863 49.881492489179685 90.21067531887826 C 0.0 **** -0.24
25157 H 8.213515142965349 50.46447025175149 89.49109071003619 H 0.0 **** 0.06
25158 H 7.161456235054374 49.0438775681932 89.700588245819 H 0.0 **** 0.06
25159 H 6.874536997093813 50.51395951498175 90.66313810036726 H 0.0 **** 0.06
25160 H 8.303432855685557 49.50328016219701 90.98715595957131 H 0.0 **** 0.06
25161 C 25.835179855720668 73.65287392301693 76.74560543956781 C 0.0 **** -0.24
25162 H 26.02728379439202 73.20908845643015 77.72299225379697 H 0.0 **** 0.06
25163 H 26.416742159005707 74.56880378248746 76.64228964502396 H 0.0 **** 0.06
25164 H 24.774449163312852 73.88282076861765 76.65419352317898 H 0.0 **** 0.06
25165 H 26.122832482898275 72.9491951906098 75.96521224998835 H 0.0 **** 0.06
25166 C 95.18369148145908 8.540767510622288 78.75786356803579 C 0.0 **** -0.24
25167 H 94.43202180121918 7.751385461756229 78.78088734142298 H 0.0 **** 0.06
25168 H 95.22000854490915 8.977720914250426 77.75942566727036 H 0.0 **** 0.06
25169 H 96.15776507414881 8.122095759020738 79.0069175349646 H 0.0 **** 0.06
25170 H 94.92213444826064 9.311671245709533 79.4828385677038 H 0.0 **** 0.06
25171 C 97.17259447401642 27.276168364624098 29.906645204796547 C 0.0 **** -0.24
25172 H 97.9894402312463 26.87998769345438 29.303577827026004 H 0.0 **** 0.06
25173 H 96.56053618220727 26.45253976266155 30.274899180789447 H 0.0 **** 0.06
25174 H 96.56044523007719 27.93968782687621 29.296267793305617 H 0.0 **** 0.06
25175 H 97.58112366514521 27.832697469336672 30.751074440947434 H 0.0 **** 0.06
25176 C 73.09910922110163 46.79669318172262 49.615745744544654 C 0.0 **** -0.24
25177 H 73.00213566923352 47.88063419235169 49.55256807485716 H 0.0 **** 0.06
25178 H 73.66290133336236 46.534617298818034 50.51129479458666 H 0.0 **** 0.06
25179 H 73.62512338007238 46.4274080631981 48.7346384469904 H 0.0 **** 0.06
25180 H 72.10853507937557 46.3456013580867 49.663183724420605 H 0.0 **** 0.06
25181 C 12.832254037295257 16.891045637116633 106.00508120424823 C 0.0 **** -0.24
25182 H 12.995876380362368 16.95732233932725 104.92975033274868 H 0.0 **** 0.06
25183 H 12.780217907948177 17.89412352316333 106.42684335180805 H 0.0 **** 0.06
25184 H 13.655744969065477 16.34472903575667 106.46512930397932 H 0.0 **** 0.06
25185 H 11.896400164345355 16.36604105152341 106.19787418318623 H 0.0 **** 0.06
25186 C 58.689148801800194 45.20065848857198 25.399582769765935 C 0.0 **** -0.24
25187 H 58.98440249938155 44.16010895862484 25.259974770101376 H 0.0 **** 0.06
25188 H 59.252986845652835 45.6300540531464 26.228219931775676 H 0.0 **** 0.06
25189 H 57.6237804522777 45.248820201887 25.620736592186176 H 0.0 **** 0.06
25190 H 58.89721451514894 45.761370377493975 24.4886254744356 H 0.0 **** 0.06
25191 C 5.157328976038116 104.66258834351788 25.32212527144486 C 0.0 **** -0.24
25192 H 4.552860308473157 105.50536690772873 25.65844409208006 H 0.0 **** 0.06
25193 H 4.529674943000089 103.77496633515258 25.23990604011459 H 0.0 **** 0.06
25194 H 5.9555216162970055 104.47821938903928 26.041939866797406 H 0.0 **** 0.06
25195 H 5.591220516392923 104.89279998674306 24.349625369866487 H 0.0 **** 0.06
25196 C 0.9520263157913291 64.53073964172393 1.0465417035453584 C 0.0 **** -0.24
25197 H 0.0805320064832813 63.972399261959 0.7036844179467039 H 0.0 **** 0.06
25198 H 1.8256990874696442 63.87950249309941 1.0406751134331103 H 0.0 **** 0.06
25199 H 0.7749650108717958 64.89391957359643 2.0593314505429703 H 0.0 **** 0.06
25200 H 1.1245765299908044 65.37751644963285 0.3818313293152187 H 0.0 **** 0.06
25201 C 49.07387233572271 73.85652391808281 32.47903868782085 C 0.0 **** -0.24
25202 H 48.29474199357554 73.0942348856143 32.45759671523375 H 0.0 **** 0.06
25203 H 49.49482805210525 73.97382939971374 31.480222324991274 H 0.0 **** 0.06
25204 H 49.86005226700118 73.55318033101324 33.17190035502131 H 0.0 **** 0.06
25205 H 48.646864017416135 74.80343922865521 32.8078541737504 H 0.0 **** 0.06
25206 C 69.4648368796312 36.836633867765215 13.373216732128128 C 0.0 **** -0.24
25207 H 69.80182499821291 36.70814575362127 12.345509041549946 H 0.0 **** 0.06
25208 H 69.66595648716938 35.925666877451846 13.938104782808637 H 0.0 **** 0.06
25209 H 68.39359837534084 37.04047061819588 13.38140796306999 H 0.0 **** 0.06
25210 H 69.99687167540677 37.67152954246782 13.82837113598174 H 0.0 **** 0.06
25211 C 84.22892425881065 19.076976997707618 39.167806828705025 C 0.0 **** -0.24
25212 H 83.26263484748694 18.975375856961534 39.662621355101706 H 0.0 **** 0.06
25213 H 84.18831887442977 19.90639900527816 38.46032407955953 H 0.0 **** 0.06
25214 H 84.46330082491974 18.155415870113302 38.635198069471066 H 0.0 **** 0.06
25215 H 84.99952668900488 19.273148763542565 39.91373038861079 H 0.0 **** 0.06
25216 C 26.820788126636273 99.81745880851474 24.764853609314645 C 0.0 **** -0.24
25217 H 26.31047353514539 99.45289829394346 25.656166696535553 H 0.0 **** 0.06
25218 H 27.81944472448876 100.16436588415345 25.034610911483206 H 0.0 **** 0.06
25219 H 26.253307162754396 100.64204225918351 24.332869922771824 H 0.0 **** 0.06
25220 H 26.90049732596924 99.01005419187786 24.03733207247649 H 0.0 **** 0.06
25221 C 3.631726386468472 30.155313848963033 65.16448940035443 C 0.0 **** -0.24
25222 H 4.650694345862746 30.09757760839645 64.7808746809817 H 0.0 **** 0.06
25223 H 3.1978882041313312 31.119609122083546 64.89786886871457 H 0.0 **** 0.06
25224 H 3.6464562763468678 30.050682292447902 66.24923851551634 H 0.0 **** 0.06
25225 H 3.033750247845717 29.35444494875395 64.73055174964242 H 0.0 **** 0.06
25226 C 43.675661340422444 51.358926794039014 96.77305895096944 C 0.0 **** -0.24
25227 H 44.61503987685393 50.81337590313089 96.86243219744497 H 0.0 **** 0.06
25228 H 43.42176751695684 51.47612331504925 95.7198755617666 H 0.0 **** 0.06
25229 H 43.780073009198894 52.34142769752276 97.23379704330256 H 0.0 **** 0.06
25230 H 42.88477150330803 50.804494827005115 97.27835179277943 H 0.0 **** 0.06
25231 C 18.23110557904249 88.24241607033778 102.911462553137 C 0.0 **** -0.24
25232 H 17.937932801912808 88.68936598218625 101.96069287646151 H 0.0 **** 0.06
25233 H 18.32053959303508 87.16295754587813 102.79293747556832 H 0.0 **** 0.06
25234 H 17.475723033712995 88.4649117126138 103.66464330738924 H 0.0 **** 0.06
25235 H 19.190047223904344 88.6548506237915 103.22612599807033 H 0.0 **** 0.06
25236 C 107.61795832150707 1.805873709459945 63.86279373995949 C 0.0 **** -0.24
25237 H 107.5293943553019 1.7229529394139718 62.77984179016642 H 0.0 **** 0.06
25238 H 107.80466133448168 0.8184140166875977 64.28790416619537 H 0.0 **** 0.06
25239 H 106.69206836303533 2.2082766146390327 64.2729498543469 H 0.0 **** 0.06
25240 H 108.44466355018642 2.4704225549366186 64.11009028240517 H 0.0 **** 0.06
25241 C 32.23717770601877 65.12120792041605 42.019707935843485 C 0.0 **** -0.24
25242 H 32.133008831205984 65.16866671716903 43.10357180383028 H 0.0 **** 0.06
25243 H 32.9931037181716 65.8381526106993 41.696245919459614 H 0.0 **** 0.06
25244 H 31.28277596305975 65.36421916604363 41.55238871964934 H 0.0 **** 0.06
25245 H 32.54038465001685 64.11574628606189 41.72799260540506 H 0.0 **** 0.06
25246 C 38.50893303698223 13.808953372960687 14.613768517577796 C 0.0 **** -0.24
25247 H 38.982863003911206 13.007558209675054 15.179696527653732 H 0.0 **** 0.06
25248 H 38.482968601313274 13.540591760577115 13.557418997251148 H 0.0 **** 0.06
25249 H 39.078200154095754 14.729826583375484 14.740452654261048 H 0.0 **** 0.06
25250 H 37.49239512390068 13.95721491065801 14.976442623522189 H 0.0 **** 0.06
25251 C 10.006408279902502 106.05440816435933 92.88492621496553 C 0.0 **** -0.24
25252 H 9.376081433428283 105.3586990262917 92.33102798163955 H 0.0 **** 0.06
25253 H 10.915344245804107 105.54481643856636 93.20624401528801 H 0.0 **** 0.06
25254 H 9.466184013809368 106.41841310637548 93.75853396554731 H 0.0 **** 0.06
25255 H 10.269117307636591 106.89621227309011 92.24316046408353 H 0.0 **** 0.06
25256 C 85.01421311304716 74.12459664434013 34.17302052021407 C 0.0 **** -0.24
25257 H 83.95103025857247 74.36372319473514 34.1463914228666 H 0.0 **** 0.06
25258 H 85.14893985803889 73.05259559335781 34.024024137803295 H 0.0 **** 0.06
25259 H 85.4267917465275 74.41314919048372 35.13965006406855 H 0.0 **** 0.06
25260 H 85.5283698771272 74.66897159473262 33.38058935222284 H 0.0 **** 0.06
25261 C 47.91602317517561 109.13690850254297 65.8638300333239 C 0.0 **** -0.24
25262 H 48.80608850764747 108.59269284623491 65.54678514919914 H 0.0 **** 0.06
25263 H 47.921945324314095 109.2426748583345 66.94867601151415 H 0.0 **** 0.06
25264 H 47.02632797594805 108.58736760220421 65.5562594822971 H 0.0 **** 0.06
25265 H 47.91134914629555 110.12452385577359 65.40179918886565 H 0.0 **** 0.06
25266 C 68.38437864848376 39.414942916148554 68.44175268696736 C 0.0 **** -0.24
25267 H 68.4791963232559 38.82379899878931 69.35225410402239 H 0.0 **** 0.06
25268 H 69.08929613172958 40.24528322939553 68.47377854886815 H 0.0 **** 0.06
25269 H 67.36829628542665 39.801974073999745 68.36388154899302 H 0.0 **** 0.06
25270 H 68.6016413238795 38.78694877484768 67.57689329907399 H 0.0 **** 0.06
25271 C 14.996239723506172 59.01967020139341 100.14054497814374 C 0.0 **** -0.24
25272 H 14.403091845668165 59.874018290181 99.81421028016905 H 0.0 **** 0.06
25273 H 16.000422062488727 59.35395796912596 100.40180715363016 H 0.0 **** 0.06
25274 H 15.054731795435472 58.28923946478912 99.33289216193435 H 0.0 **** 0.06
25275 H 14.527507312714697 58.56229363557139 101.01110624469476 H 0.0 **** 0.06
25276 C 32.396763511029974 50.02321011261645 72.3108590257741 C 0.0 **** -0.24
25277 H 32.1682911110471 50.14462276828209 73.37008976787888 H 0.0 **** 0.06
25278 H 33.4623117680278 49.82286563686498 72.19006785363584 H 0.0 **** 0.06
25279 H 32.135118860423916 50.93561696891997 71.77569442293071 H 0.0 **** 0.06
25280 H 31.82197990972645 49.18847668820169 71.9093153444133 H 0.0 **** 0.06
25281 C 3.474157148093724 19.110034287236566 1.6167457595969097 C 0.0 **** -0.24
25282 H 3.3162432388546677 18.101428106449145 1.2352157591614912 H 0.0 **** 0.06
25283 H 2.5521054678452515 19.68448727799835 1.5172421816447184 H 0.0 **** 0.06
25284 H 4.267788475346606 19.594719460613465 1.0479848276455925 H 0.0 **** 0.06
25285 H 3.759468713562768 19.05946595459756 2.6679377463132425 H 0.0 **** 0.06
25286 C 101.41136789177597 36.49937526446354 61.90708566023497 C 0.0 **** -0.24
25287 H 102.02390974596946 35.89490865830459 61.237361055469876 H 0.0 **** 0.06
25288 H 101.54929906316184 37.555325591453766 61.670450077118204 H 0.0 **** 0.06
25289 H 101.71208917554372 36.31631755409569 62.93819618720994 H 0.0 **** 0.06
25290 H 100.36270351699943 36.2325041160762 61.78124793793927 H 0.0 **** 0.06
25291 C 87.1324662657199 4.035067674350207 25.28371936846179 C 0.0 **** -0.24
25292 H 87.44574940618972 3.5608542288044838 26.213616486818125 H 0.0 **** 0.06
25293 H 87.56252412165281 5.034886243393833 25.22379889201386 H 0.0 **** 0.06
25294 H 86.04469577333543 4.105506118740442 25.261087397957652 H 0.0 **** 0.06
25295 H 87.47530572368655 3.4390110760687698 24.437946922530585 H 0.0 **** 0.06
25296 C 67.5238537782252 63.18475221293405 74.66835994146271 C 0.0 **** -0.24
25297 H 68.408927467717 63.446540276390984 75.24831250084154 H 0.0 **** 0.06
25298 H 66.64419176223714 63.223325310895625 75.31169757005387 H 0.0 **** 0.06
25299 H 67.63737809346372 62.17751708514633 74.26787773269294 H 0.0 **** 0.06
25300 H 67.40582419188323 63.89164889699946 73.84702779720129 H 0.0 **** 0.06
25301 C 32.0328684858448 6.013370751059398 16.20931072257153 C 0.0 **** -0.24
25302 H 31.95173313620603 5.769633679326972 17.26909548521823 H 0.0 **** 0.06
25303 H 32.23971981788168 5.1050615182329295 15.642647418577269 H 0.0 **** 0.06
25304 H 32.84384425589474 6.72734120614885 16.06315697231338 H 0.0 **** 0.06
25305 H 31.095693613940796 6.452265482452816 15.865188455882617 H 0.0 **** 0.06
25306 C 93.18738880180572 106.6610570343642 46.78237618339884 C 0.0 **** -0.24
25307 H 92.86956975508963 106.50159270415242 47.81246770261387 H 0.0 **** 0.06
25308 H 92.98358526460333 107.6925914131889 46.49547145617615 H 0.0 **** 0.06
25309 H 92.63960940347746 105.9852643095465 46.125149169535575 H 0.0 **** 0.06
25310 H 94.25513178416747 106.46342400407588 46.697056766811954 H 0.0 **** 0.06
25311 C 69.34233393869084 51.019464172663334 89.22282969683951 C 0.0 **** -0.24
25312 H 70.05876261458724 51.142176321196146 88.41063202110453 H 0.0 **** 0.06
25313 H 68.67582391855433 51.88183885152836 89.25227006276623 H 0.0 **** 0.06
25314 H 69.87625957203403 50.93907019191985 90.16860530349334 H 0.0 **** 0.06
25315 H 68.75674492109482 50.11435018093265 89.05720772441038 H 0.0 **** 0.06
25316 C 55.961698669666816 28.973960939845654 26.749697678399677 C 0.0 **** -0.24
25317 H 55.37913883283025 29.57821596884429 27.445126529691414 H 0.0 **** 0.06
25318 H 55.92867651207598 29.427561695370343 25.75901493786352 H 0.0 **** 0.06
25319 H 55.54307992051966 27.9682495724485 26.7039219513546 H 0.0 **** 0.06
25320 H 56.99541179337058 28.92080028613367 27.091581463004516 H 0.0 **** 0.06
25321 C 46.638725093488404 73.27301220959197 3.188055837438867 C 0.0 **** -0.24
25322 H 45.60217381509574 73.41061524060092 2.879563912648166 H 0.0 **** 0.06
25323 H 47.10854592610275 74.24615522070599 3.3314066846919275 H 0.0 **** 0.06
25324 H 47.176452983135334 72.71961989418767 2.418179839826081 H 0.0 **** 0.06
25325 H 46.6671666454115 72.71403420049256 4.1232900558534595 H 0.0 **** 0.06
25326 C 39.7247969353808 103.31593450463848 8.347725303401717 C 0.0 **** -0.24
25327 H 40.70972388918727 103.0772969124958 8.747506886504027 H 0.0 **** 0.06
25328 H 39.74911137702607 104.3060428614269 7.891317916889989 H 0.0 **** 0.06
25329 H 38.99248632447923 103.30545235147952 9.15494997939804 H 0.0 **** 0.06
25330 H 39.448342175402765 102.57596102058656 7.596264438734934 H 0.0 **** 0.06
25331 C 66.04487562409577 34.71028540263285 81.51742670795011 C 0.0 **** -0.24
25332 H 66.13690557137295 34.39406407078491 82.5558153005137 H 0.0 **** 0.06
25333 H 65.54059930045315 35.67593041769743 81.47449056125015 H 0.0 **** 0.06
25334 H 65.46390766469358 33.9723562620058 80.96374969678038 H 0.0 **** 0.06
25335 H 67.03706526042765 34.79817153112765 81.07489858726052 H 0.0 **** 0.06
25336 C 78.9664617990739 62.71766628733897 85.09570254573111 C 0.0 **** -0.24
25337 H 79.39443510286438 62.49447281587035 86.07280381612316 H 0.0 **** 0.06
25338 H 79.595880681652 62.28718027606678 84.31723609194094 H 0.0 **** 0.06
25339 H 78.90923879825198 63.79772786935237 84.9623838771933 H 0.0 **** 0.06
25340 H 77.96559192115038 62.29008392163291 85.03142010983791 H 0.0 **** 0.06
25341 C 12.788825141105008 16.529339622846948 24.752441799449485 C 0.0 **** -0.24
25342 H 13.177258077635443 16.94395463851319 23.822640429416765 H 0.0 **** 0.06
25343 H 12.853229674128926 15.442085673122534 24.72008055647356 H 0.0 **** 0.06
25344 H 11.74764496444594 16.828268319546254 24.876211341388 H 0.0 **** 0.06
25345 H 13.376367448284071 16.904210517573517 25.59094599154193 H 0.0 **** 0.06
25346 C 92.37826478631615 24.784814381157503 11.162727543478567 C 0.0 **** -0.24
25347 H 92.15395884298829 25.399185958485504 12.035351668113236 H 0.0 **** 0.06
25348 H 91.68648647943206 25.032154426977286 10.357413893560334 H 0.0 **** 0.06
25349 H 92.27153795694494 23.73153479977921 11.423096366794056 H 0.0 **** 0.06
25350 H 93.4004006253162 24.97571832605888 10.836498523566377 H 0.0 **** 0.06
25351 C 46.72770622704701 25.991175747363187 0.3532815152429549 C 0.0 **** -0.24
25352 H 46.363430489055304 26.574456896402097 1.1992760228888528 H 0.0 **** 0.06
25353 H 46.126958955025714 25.087700197572758 0.24838614103007117 H 0.0 **** 0.06
25354 H 47.76981433812074 25.71738420488964 0.5238024085432871 H 0.0 **** 0.06
25355 H 46.6533060060743 26.58625241348645 -0.5570726877621075 H 0.0 **** 0.06
25356 C 83.65390560992273 84.84792610869533 4.29918905883175 C 0.0 **** -0.24
25357 H 82.84510455041442 84.31110296885211 4.79403257111953 H 0.0 **** 0.06
25358 H 83.25347563618175 85.73787826600778 3.8112172173011576 H 0.0 **** 0.06
25359 H 84.11604460264829 84.20203158390382 3.5535167924181206 H 0.0 **** 0.06
25360 H 84.39938317683959 85.14296590870367 5.037518993739633 H 0.0 **** 0.06
25361 C 96.00251512138206 84.78316026084488 57.15032523755408 C 0.0 **** -0.24
25362 H 95.22437233510036 85.50603992140165 57.39385788142171 H 0.0 **** 0.06
25363 H 95.95724816355408 84.54434112621965 56.08728442366916 H 0.0 **** 0.06
25364 H 95.84942936626615 83.87475392587476 57.732836236232906 H 0.0 **** 0.06
25365 H 96.97878170395202 85.20578942246021 57.38729259345533 H 0.0 **** 0.06
25366 C 3.549605441747076 29.03050003884791 91.90251211889611 C 0.0 **** -0.24
25367 H 3.7200191129691973 28.58767730334104 92.88372340311173 H 0.0 **** 0.06
25368 H 4.419269386650569 28.856398206843416 91.26873488992953 H 0.0 **** 0.06
25369 H 3.386617245661199 30.102981810358827 92.0112830543394 H 0.0 **** 0.06
25370 H 2.67082926394923 28.573520447657863 91.4459438837074 H 0.0 **** 0.06
25371 C 62.038815945734434 44.536209304090875 48.65220521036227 C 0.0 **** -0.24
25372 H 61.57552272518853 44.75769749436308 47.690964481313614 H 0.0 **** 0.06
25373 H 61.68238426991632 45.24591566704082 49.39963132751185 H 0.0 **** 0.06
25374 H 63.12222305472037 44.61791092779338 48.560323138309315 H 0.0 **** 0.06
25375 H 61.77592798944412 43.52374571854005 48.957475187966246 H 0.0 **** 0.06
25376 C 64.13673868884715 103.79733983722718 87.32505389643566 C 0.0 **** -0.24
25377 H 64.42868411155195 103.66369599889907 88.36705611686875 H 0.0 **** 0.06
25378 H 63.97753412130351 102.82251098075872 86.86486267869827 H 0.0 **** 0.06
25379 H 64.92591867924554 104.32747214680472 86.79268652419077 H 0.0 **** 0.06
25380 H 63.213915362494625 104.37618483932465 87.27920633110614 H 0.0 **** 0.06
25381 C 63.08278074257197 110.68614132635274 5.513595250883952 C 0.0 **** -0.24
25382 H 62.54813455138648 110.65034810037972 4.564589105283034 H 0.0 **** 0.06
25383 H 62.588329442292434 110.03281245304 6.233797856396592 H 0.0 **** 0.06
25384 H 63.08441148334762 111.70829642198755 5.891199078127244 H 0.0 **** 0.06
25385 H 64.10964079978103 110.35183346362126 5.3648771353526 H 0.0 **** 0.06
25386 C 55.57559896687482 100.66922485885851 13.860726770199875 C 0.0 **** -0.24
25387 H 55.59631540804035 99.57916429833244 13.877317142550282 H 0.0 **** 0.06
25388 H 55.77994768041833 101.0516194863877 14.861395252242005 H 0.0 **** 0.06
25389 H 54.59177488346262 101.00909618042883 13.535127133998202 H 0.0 **** 0.06
25390 H 56.334127927279226 101.03577422425812 13.169697306216136 H 0.0 **** 0.06
25391 C 40.187614835746615 20.01956907127044 35.46143390155413 C 0.0 **** -0.24
25392 H 40.19649021350679 20.16855587358549 34.38188838284805 H 0.0 **** 0.06
25393 H 40.19660621666266 18.951539791602215 35.68108374610614 H 0.0 **** 0.06
25394 H 39.28942249392799 20.470608544744323 35.882234629149366 H 0.0 **** 0.06
25395 H 41.06939161716777 20.48832153254898 35.89995221362409 H 0.0 **** 0.06
25396 C 10.937687435700582 23.562891498642855 92.35074569020088 C 0.0 **** -0.24
25397 H 11.800299732794258 23.99359700831937 92.85989126876217 H 0.0 **** 0.06
25398 H 10.319316675465643 23.029824611513604 93.07285280106836 H 0.0 **** 0.06
25399 H 11.279678726217128 22.869607024052172 91.58221137582922 H 0.0 **** 0.06
25400 H 10.354255190044881 24.35974956617507 91.88885667807878 H 0.0 **** 0.06
25401 C 69.36377314837699 109.76659845097146 55.231458372454924 C 0.0 **** -0.24
25402 H 69.83347150104782 109.03854289945461 55.89160143916691 H 0.0 **** 0.06
25403 H 70.1207422057096 110.21748226458126 54.58845050590871 H 0.0 **** 0.06
25404 H 68.88524517488597 110.54347402342856 55.82904083523305 H 0.0 **** 0.06
25405 H 68.61307940065407 109.2684680998847 54.616753141021526 H 0.0 **** 0.06
25406 C 50.47110255560841 45.86117763295897 57.341016547329104 C 0.0 **** -0.24
25407 H 50.7898055818651 45.23732471461909 56.50584751257213 H 0.0 **** 0.06
25408 H 50.34673525620061 45.24194182985042 58.22891132594094 H 0.0 **** 0.06
25409 H 49.523623383680956 46.34023427700441 57.09478022664956 H 0.0 **** 0.06
25410 H 51.225418775237685 46.625251604594325 57.53159055950039 H 0.0 **** 0.06
25411 C 62.777246211018856 5.162455634699128 7.562834539471993 C 0.0 **** -0.24
25412 H 63.6840549521772 5.7040778872622155 7.830678882688147 H 0.0 **** 0.06
25413 H 62.16900882508242 5.779271390666011 6.900149034666384 H 0.0 **** 0.06
25414 H 62.21079575937849 4.932815869385337 8.466115743739493 H 0.0 **** 0.06
25415 H 63.04364752958465 4.2360105534019254 7.054922942997081 H 0.0 **** 0.06
25416 C 27.51546941023488 41.74445676013057 96.3656492802287 C 0.0 **** -0.24
25417 H 27.98320264904352 42.18717813292148 95.48713308458173 H 0.0 **** 0.06
25418 H 28.248717801492376 41.670153831775615 97.16924016390885 H 0.0 **** 0.06
25419 H 27.144839412000344 40.74935497179353 96.11812702262887 H 0.0 **** 0.06
25420 H 26.6845373130255 42.371428548487316 96.68935381963922 H 0.0 **** 0.06
25421 C 44.59148645531684 70.63458554958854 81.10570898120602 C 0.0 **** -0.24
25422 H 44.46762720805799 71.3314854390787 81.9336423896489 H 0.0 **** 0.06
25423 H 44.81848102040658 71.18791899502497 80.19483362455983 H 0.0 **** 0.06
25424 H 43.67057874450728 70.06840497193647 80.96682802146546 H 0.0 **** 0.06
25425 H 45.409238707006864 69.94809377086264 81.32775796221364 H 0.0 **** 0.06
25426 C 6.49327448511788 106.4053101926949 67.7029052631978 C 0.0 **** -0.24
25427 H 5.906574017702667 107.04861578890024 68.35918028041255 H 0.0 **** 0.06
25428 H 7.551850245811437 106.51815414010997 67.93505379635431 H 0.0 **** 0.06
25429 H 6.3159808232983465 106.68808795719733 66.6651494652462 H 0.0 **** 0.06
25430 H 6.196562301800228 105.36705881620142 67.85230192217486 H 0.0 **** 0.06
25431 C 84.21948941878728 85.10347622071174 8.550371311222328 C 0.0 **** -0.24
25432 H 85.04447056660342 85.51359378606108 7.966560413389601 H 0.0 **** 0.06
25433 H 83.55099208285358 85.9101648556439 8.85105078254093 H 0.0 **** 0.06
25434 H 84.61430672507163 84.60821133541336 9.437097503922027 H 0.0 **** 0.06
25435 H 83.66993425863421 84.38262337530435 7.944660394274752 H 0.0 **** 0.06
25436 C 96.30481730192673 22.638825935038554 18.921204868195666 C 0.0 **** -0.24
25437 H 96.09554657998285 23.08562431939626 19.893877700405998 H 0.0 **** 0.06
25438 H 97.2732002932965 22.987129869998114 18.562364895296934 H 0.0 **** 0.06
25439 H 95.52812902974426 22.928490147743233 18.214243556847375 H 0.0 **** 0.06
25440 H 96.32172738800864 21.552722548031525 19.01761510498151 H 0.0 **** 0.06
25441 C 76.88042458940325 88.56272087940471 60.46133320659098 C 0.0 **** -0.24
25442 H 75.82042666713605 88.80912561822339 60.53244980792789 H 0.0 **** 0.06
25443 H 77.47513861600865 89.42149930329668 60.77233035076 H 0.0 **** 0.06
25444 H 77.12402559771493 88.30592284789896 59.429681233307804 H 0.0 **** 0.06
25445 H 77.09954321898698 87.71396645128891 61.10905793798295 H 0.0 **** 0.06
25446 C 111.2857313945326 86.18549884725266 60.42065196673781 C 0.0 **** -0.24
25447 H 112.19747576098595 86.78081266065686 60.46644546895061 H 0.0 **** 0.06
25448 H 111.54421755834028 85.12745352574936 60.38838207556125 H 0.0 **** 0.06
25449 H 110.72469082578775 86.44984322545554 59.523806400763476 H 0.0 **** 0.06
25450 H 110.6769327488883 86.38487429511699 61.302006592750445 H 0.0 **** 0.06
25451 C 94.95013436974048 4.1594627575096155 78.40562755122693 C 0.0 **** -0.24
25452 H 94.97890654632454 3.7330120733214898 79.40854598756948 H 0.0 **** 0.06
25453 H 93.91256692395024 4.32182949162862 78.1104321257429 H 0.0 **** 0.06
25454 H 95.4244680198214 3.4724004225502796 77.70518747450575 H 0.0 **** 0.06
25455 H 95.48243498561115 5.109904532886262 78.40095888788053 H 0.0 **** 0.06
25456 C 62.7056521808914 86.76844523780238 54.49311754525493 C 0.0 **** -0.24
25457 H 61.81105538532855 86.51592817151695 55.0631080213156 H 0.0 **** 0.06
25458 H 62.56406140803515 87.73028346249802 54.00141885012235 H 0.0 **** 0.06
25459 H 62.88635230921373 85.99946921213834 53.741279936724624 H 0.0 **** 0.06
25460 H 63.56126713201096 86.82639575160474 55.16638214266342 H 0.0 **** 0.06
25461 C 20.463461141802526 18.935779222330012 48.249950428486784 C 0.0 **** -0.24
25462 H 20.416255862154827 18.440302538977278 49.21908191681431 H 0.0 **** 0.06
25463 H 20.66258763970859 19.997858563641728 48.39413614274973 H 0.0 **** 0.06
25464 H 19.512334180913285 18.810691242165177 47.73205187257563 H 0.0 **** 0.06
25465 H 21.261663640712555 18.493768732396887 47.653667035713504 H 0.0 **** 0.06
25466 C 102.4092985179642 22.289768215053527 65.44014351186763 C 0.0 **** -0.24
25467 H 101.49644176786313 22.092566276132544 66.00172370069788 H 0.0 **** 0.06
25468 H 103.21501435644825 21.66504695666552 65.82645784004367 H 0.0 **** 0.06
25469 H 102.6810693188039 23.34039236151233 65.54628950448796 H 0.0 **** 0.06
25470 H 102.2451874960214 22.061491625684027 64.3873483170488 H 0.0 **** 0.06
25471 C 31.67038037886917 68.05761201629477 31.07934014098666 C 0.0 **** -0.24
25472 H 31.282035088342866 68.47203158947178 30.148175371106447 H 0.0 **** 0.06
25473 H 32.18032564423331 68.84136606566705 31.640023508768735 H 0.0 **** 0.06
25474 H 32.37293563730796 67.25451663941044 30.853485327800826 H 0.0 **** 0.06
25475 H 30.846030102601134 67.66247914775997 31.672855110382415 H 0.0 **** 0.06
25476 C 63.66469573482584 56.94775270587786 102.00137233384268 C 0.0 **** -0.24
25477 H 64.12869611307173 56.55408924913928 102.90552171404332 H 0.0 **** 0.06
25478 H 64.44048283016178 57.27200248724682 101.30754824433913 H 0.0 **** 0.06
25479 H 63.02923679642424 57.79464264557339 102.25791216687125 H 0.0 **** 0.06
25480 H 63.06192623613276 56.16867619396709 101.53441288876692 H 0.0 **** 0.06
25481 C 28.684167263455976 100.03141007225193 61.5075210071891 C 0.0 **** -0.24
25482 H 28.72842402033686 99.92007359469744 62.59130233441368 H 0.0 **** 0.06
25483 H 29.63256724531584 99.71518682364754 61.07152926051296 H 0.0 **** 0.06
25484 H 28.500001609379552 101.07576516839563 61.257363492774516 H 0.0 **** 0.06
25485 H 27.878048207770092 99.4146522388912 61.111725399614784 H 0.0 **** 0.06
25486 C 4.118007720288233 4.186494608362382 112.22190030426141 C 0.0 **** -0.24
25487 H 4.634657878362759 5.1083022161199985 112.49064513169088 H 0.0 **** 0.06
25488 H 3.0976441731299644 4.418270537445537 111.9149612303325 H 0.0 **** 0.06
25489 H 4.095488449702401 3.519515585855185 113.08378675974818 H 0.0 **** 0.06
25490 H 4.644803317255679 3.7006373766717413 111.40047194389804 H 0.0 **** 0.06
25491 C 111.92845727680186 55.91839767506252 47.60955815621338 C 0.0 **** -0.24
25492 H 111.25471863910018 56.75538867541249 47.42534436551753 H 0.0 **** 0.06
25493 H 112.96048666175781 56.245859656440274 47.47634967261816 H 0.0 **** 0.06
25494 H 111.70875669072434 55.11307046256269 46.90860443017643 H 0.0 **** 0.06
25495 H 111.79018961478056 55.55886598004727 48.630328223977976 H 0.0 **** 0.06
25496 C 43.627263897298064 102.86078872467687 52.17895393708886 C 0.0 **** -0.24
25497 H 43.64902338192866 102.79626216126803 53.266843747387725 H 0.0 **** 0.06
25498 H 43.38127871572078 101.88414516058401 51.761952694675585 H 0.0 **** 0.06
25499 H 44.60495446894714 103.17761274493108 51.8141661283222 H 0.0 **** 0.06
25500 H 42.87351050173481 103.58651909610262 51.87282706580487 H 0.0 **** 0.06
25501 C 2.883442309187574 87.27693071939797 64.50475642389412 C 0.0 **** -0.24
25502 H 3.0554396821478544 86.93547922103346 65.5252098198601 H 0.0 **** 0.06
25503 H 2.5087406824321583 86.44881943425196 63.90251077341215 H 0.0 **** 0.06
25504 H 3.818555376439452 87.64162640271442 64.08042876137665 H 0.0 **** 0.06
25505 H 2.1490796362483238 88.0832750625554 64.51089929070483 H 0.0 **** 0.06
25506 C 59.33469780263309 99.1683261861707 14.970388654656503 C 0.0 **** -0.24
25507 H 59.46396957567407 98.26949499745743 15.572183982658313 H 0.0 **** 0.06
25508 H 58.27415219452078 99.32170444870766 14.77018993817013 H 0.0 **** 0.06
25509 H 59.86948918798092 99.05505276606812 14.027291254915294 H 0.0 **** 0.06
25510 H 59.73068723966847 100.02829365854197 15.510786394975895 H 0.0 **** 0.06
25511 C 102.64220602736017 112.14587583056928 37.22803690932676 C 0.0 **** -0.24
25512 H 102.50820323310995 111.43470716633634 38.04321773558655 H 0.0 **** 0.06
25513 H 102.76374544352726 111.60413618618036 36.289777486217304 H 0.0 **** 0.06
25514 H 103.52940721712099 112.74996983094051 37.41686713778063 H 0.0 **** 0.06
25515 H 101.76843992273439 112.79368377420599 37.1633066424173 H 0.0 **** 0.06
25516 C 110.63443269536143 38.315307485457566 74.82947205200475 C 0.0 **** -0.24
25517 H 110.01020322123118 38.43855948487408 73.94393100216945 H 0.0 **** 0.06
25518 H 110.97217245040385 39.291937494704285 75.17492975170973 H 0.0 **** 0.06
25519 H 111.49749753889172 37.69749320614298 74.58180095703574 H 0.0 **** 0.06
25520 H 110.05578985532217 37.83118971375964 75.61650373221201 H 0.0 **** 0.06
25521 C 61.84827839788605 64.2659103993409 4.359697050365924 C 0.0 **** -0.24
25522 H 61.19218719807813 65.02149989384353 3.9266828627161523 H 0.0 **** 0.06
25523 H 61.50726234466052 64.02323995038242 5.366275666355612 H 0.0 **** 0.06
25524 H 62.86694267667721 64.65196238800974 4.404567689452193 H 0.0 **** 0.06
25525 H 61.82600111794349 63.36836587357626 3.741930172827445 H 0.0 **** 0.06
25526 C 98.42197682910614 75.71923652334775 60.48266566922683 C 0.0 **** -0.24
25527 H 99.17164390251094 76.36041521055597 60.01886984524509 H 0.0 **** 0.06
25528 H 97.5674329452396 76.32312058904446 60.78928468812194 H 0.0 **** 0.06
25529 H 98.85316627703489 75.23045531566379 61.356222176307966 H 0.0 **** 0.06
25530 H 98.09622356493296 74.96446868971881 59.766915211942745 H 0.0 **** 0.06
25531 C 94.64205668362592 71.66772068858677 40.03900033587183 C 0.0 **** -0.24
25532 H 94.41190004928723 71.96085698032095 41.063410136671166 H 0.0 **** 0.06
25533 H 94.22491970343114 70.67878494890374 39.84267822691908 H 0.0 **** 0.06
25534 H 95.72342241794982 71.63842643384135 39.90354402988527 H 0.0 **** 0.06
25535 H 94.20798304559594 72.38931530047648 39.34723906416744 H 0.0 **** 0.06
25536 C 109.61771752430275 29.86712934903875 50.5209624862242 C 0.0 **** -0.24
25537 H 109.12832649686976 28.924491705007938 50.76827028635423 H 0.0 **** 0.06
25538 H 108.87474938591106 30.663932700634405 50.4877789358009 H 0.0 **** 0.06
25539 H 110.10194777835181 29.779531819704857 49.548760305724805 H 0.0 **** 0.06
25540 H 110.36537874656199 30.096871365097655 51.27944955570486 H 0.0 **** 0.06
25541 C 11.803016762918443 78.66588882401581 5.614167782262541 C 0.0 **** -0.24
25542 H 10.936718039081935 79.0136421808495 5.052335552377201 H 0.0 **** 0.06
25543 H 12.710689523433114 79.08441213613065 5.178150757680044 H 0.0 **** 0.06
25544 H 11.849477436033105 77.5776581210786 5.575056106181194 H 0.0 **** 0.06
25545 H 11.716086660742505 78.98823654321552 6.652142029376819 H 0.0 **** 0.06
25546 C 7.806626903219211 40.7291179880221 83.85367579512143 C 0.0 **** -0.24
25547 H 6.977031758074091 41.3211540466276 84.23933050333716 H 0.0 **** 0.06
25548 H 8.21668360978839 40.11335655238081 84.65410051675639 H 0.0 **** 0.06
25549 H 8.581388525186753 41.39409654320562 83.47315340211009 H 0.0 **** 0.06
25550 H 7.4498707845361025 40.08731889801736 83.04658501343596 H 0.0 **** 0.06
25551 C 41.51094666812699 53.382680671576566 45.876076346569356 C 0.0 **** -0.24
25552 H 41.166323308426286 52.68201027305071 46.63642962463884 H 0.0 **** 0.06
25553 H 42.49046604099843 53.76959172807199 46.15588697066801 H 0.0 **** 0.06
25554 H 40.80380349347817 54.20882480416867 45.79668594488756 H 0.0 **** 0.06
25555 H 41.5813421608953 52.87119860277812 44.91617273114763 H 0.0 **** 0.06
25556 C 75.99237634704699 30.764229908563493 21.286703852437483 C 0.0 **** -0.24
25557 H 76.1166143523063 30.970212755982345 22.34930740562163 H 0.0 **** 0.06
25558 H 75.23873332089246 31.433842856817265 20.871580844783125 H 0.0 **** 0.06
25559 H 75.67514838649606 29.730882765015807 21.151472888271996 H 0.0 **** 0.06
25560 H 76.94168110080116 30.92210600547798 20.773534203574656 H 0.0 **** 0.06
25561 C 8.048813829924029 71.49749472649552 90.23664318380429 C 0.0 **** -0.24
25562 H 9.037886022759693 71.77823752008959 89.87422065483301 H 0.0 **** 0.06
25563 H 8.120356041430398 71.17889473508257 91.27684949910702 H 0.0 **** 0.06
25564 H 7.65825794349189 70.68004712104948 89.63217747763798 H 0.0 **** 0.06
25565 H 7.379643562417641 72.35557613229395 90.16544694882674 H 0.0 **** 0.06
25566 C 104.22641061463517 25.382054387141345 70.41220058538681 C 0.0 **** -0.24
25567 H 105.10568157362883 25.468655141125275 71.05046406845631 H 0.0 **** 0.06
25568 H 103.42389312074698 26.00308225287464 70.81299177640813 H 0.0 **** 0.06
25569 H 103.90118124489499 24.342545871523928 70.38051067535505 H 0.0 **** 0.06
25570 H 104.47525113414972 25.716284563020217 69.40424966405129 H 0.0 **** 0.06
25571 C 63.62644688104192 32.359227948497676 60.984567587316974 C 0.0 **** -0.24
25572 H 63.5554265303742 32.9918939037438 60.10007492924467 H 0.0 **** 0.06
25573 H 62.65098215138385 32.29846203937535 61.46666968160042 H 0.0 **** 0.06
25574 H 64.34972772929643 32.785532034052665 61.679053712910274 H 0.0 **** 0.06
25575 H 63.94911744249929 31.35978532401424 60.69042711192279 H 0.0 **** 0.06
25576 C 39.31071914674837 77.64084489094563 13.622206843312085 C 0.0 **** -0.24
25577 H 39.860059085813816 77.46206103131428 12.697443955212918 H 0.0 **** 0.06
25578 H 38.401003038591085 78.19989364411708 13.401611008473566 H 0.0 **** 0.06
25579 H 39.93281707706012 78.21393655985017 14.309410212298516 H 0.0 **** 0.06
25580 H 39.04929477128181 76.68576079313718 14.078973864846887 H 0.0 **** 0.06
25581 C 30.263758592559213 61.643955026429865 88.46919447437901 C 0.0 **** -0.24
25582 H 31.343964868996522 61.717669002194214 88.59639533942979 H 0.0 **** 0.06
25583 H 29.914650607935243 60.694967299703535 88.87538563876376 H 0.0 **** 0.06
25584 H 30.019702414305073 61.6977757580691 87.4081269397746 H 0.0 **** 0.06
25585 H 29.778776372942303 62.46569962720139 88.99557686023928 H 0.0 **** 0.06
25586 C 16.542708587178822 62.33911923371847 101.36785292268638 C 0.0 **** -0.24
25587 H 17.366292315109263 62.26517095842798 102.07936468887513 H 0.0 **** 0.06
25588 H 16.94196641052031 62.412161501565244 100.3565451691776 H 0.0 **** 0.06
25589 H 15.95070424076647 63.22701818184451 101.59070427177696 H 0.0 **** 0.06
25590 H 15.91324169398149 61.45296800648706 101.4481761047654 H 0.0 **** 0.06
25591 C 54.270197505750346 88.45368929135233 65.02208606396914 C 0.0 **** -0.24
25592 H 53.54699272854394 88.96294488271894 65.65926578543366 H 0.0 **** 0.06
25593 H 55.04441036478973 88.000489298748 65.64178974031702 H 0.0 **** 0.06
25594 H 54.72408922249295 89.17403769071322 64.34065158503967 H 0.0 **** 0.06
25595 H 53.76377627832895 87.67891365405569 64.44645281140777 H 0.0 **** 0.06
25596 C 61.41097532629613 25.818605425234296 2.2678288934019974 C 0.0 **** -0.24
25597 H 61.502103947199465 26.89813595807135 2.1479882075522596 H 0.0 **** 0.06
25598 H 62.366170132108586 25.408603618262788 2.5974375246671 H 0.0 **** 0.06
25599 H 61.132256158314725 25.370729200778896 1.3146637299250301 H 0.0 **** 0.06
25600 H 60.64459364680332 25.599020754008023 3.010746821707869 H 0.0 **** 0.06
25601 C 94.55875519296097 50.85459321629676 52.8240566996896 C 0.0 **** -0.24
25602 H 94.0734348653935 50.29213138450052 53.62154666516654 H 0.0 **** 0.06
25603 H 95.35848293101333 51.4644753907437 53.24509791779564 H 0.0 **** 0.06
25604 H 93.82670706462707 51.49972488495976 52.33745203333187 H 0.0 **** 0.06
25605 H 94.97585201595379 50.16251933229029 52.09281984135586 H 0.0 **** 0.06
25606 C 19.391368201416366 61.436986737401156 59.26562652015051 C 0.0 **** -0.24
25607 H 19.928750214145794 62.38356342963533 59.32800087727235 H 0.0 **** 0.06
25608 H 18.625284673791633 61.40415437004452 60.04058424662316 H 0.0 **** 0.06
25609 H 20.089734936188194 60.612419525440544 59.41039610886842 H 0.0 **** 0.06
25610 H 18.922028149341774 61.34943925172638 58.28602266517802 H 0.0 **** 0.06
25611 C 61.953354432685785 53.214181131063924 69.5585889252174 C 0.0 **** -0.24
25612 H 62.611303971517856 54.05131457277889 69.79189429568115 H 0.0 **** 0.06
25613 H 60.927682596271694 53.474136491005765 69.82151271435626 H 0.0 **** 0.06
25614 H 62.26410900113447 52.33853085966064 70.12856664054962 H 0.0 **** 0.06
25615 H 62.010928066711955 52.99353576968019 68.49244384937634 H 0.0 **** 0.06
25616 C 79.42961158440849 37.33360219749392 38.421141425720236 C 0.0 **** -0.24
25617 H 78.87634193370724 36.8343676929731 39.21613762116618 H 0.0 **** 0.06
25618 H 79.91842524566619 36.58766169345154 37.794619002331615 H 0.0 **** 0.06
25619 H 80.18054952106894 37.991203755372396 38.858381363722344 H 0.0 **** 0.06
25620 H 78.74052073275595 37.92314259959193 37.81485732654397 H 0.0 **** 0.06
25621 C 35.08940367032852 14.057483195513854 44.06028368874507 C 0.0 **** -0.24
25622 H 36.120060552304125 13.97325212900347 44.40612318481104 H 0.0 **** 0.06
25623 H 35.0650411485706 13.994603927440195 42.97143329930071 H 0.0 **** 0.06
25624 H 34.676292576046365 15.013584798898435 44.379824404665925 H 0.0 **** 0.06
25625 H 34.49738999935738 13.245927767398541 44.484782284959834 H 0.0 **** 0.06
25626 C 57.24995202154971 72.30560331966487 62.28043982662788 C 0.0 **** -0.24
25627 H 58.01569839306813 73.01868763504183 61.976129775845884 H 0.0 **** 0.06
25628 H 56.41670962604664 72.84078433863607 62.7380793057519 H 0.0 **** 0.06
25629 H 57.671664236873234 71.60468406448419 63.00068727199088 H 0.0 **** 0.06
25630 H 56.894606895860086 71.75908837740855 61.406676319285076 H 0.0 **** 0.06
25631 C 46.91256247616499 5.991876991505237 12.977291958359046 C 0.0 **** -0.24
25632 H 47.73315133661686 5.879167078375062 13.68487920424009 H 0.0 **** 0.06
25633 H 46.813110332485024 5.080024037212894 12.388698861317238 H 0.0 **** 0.06
25634 H 47.117321912092166 6.832765653761996 12.31387935715594 H 0.0 **** 0.06
25635 H 45.986666323466096 6.175551196670696 13.52171041072289 H 0.0 **** 0.06
25636 C 16.2149705717228 104.30650612990681 28.697650155289523 C 0.0 **** -0.24
25637 H 15.145381384872508 104.13534820514857 28.818515021009034 H 0.0 **** 0.06
25638 H 16.727334505057485 104.07987699024594 29.63198347477106 H 0.0 **** 0.06
25639 H 16.388117558800133 105.34972950854134 28.431705527665144 H 0.0 **** 0.06
25640 H 16.598825352890913 103.66245821064092 27.906390917244778 H 0.0 **** 0.06
25641 C 49.898906659570486 69.34782009633605 12.125620089220789 C 0.0 **** -0.24
25642 H 49.09577025293352 69.40636083776644 11.39043757337079 H 0.0 **** 0.06
25643 H 50.60978818146614 68.57763466150936 11.82622695037351 H 0.0 **** 0.06
25644 H 49.479896271549784 69.09622309569119 13.100816343538199 H 0.0 **** 0.06
25645 H 50.40769981143674 70.30978088434247 12.185497838670187 H 0.0 **** 0.06
25646 C 82.75504701521962 48.269896209335776 98.22561042759179 C 0.0 **** -0.24
25647 H 82.69033556284603 47.839710038462286 99.22556079403577 H 0.0 **** 0.06
25648 H 81.80665238473858 48.12721350996717 97.70768218981084 H 0.0 **** 0.06
25649 H 83.55142685106773 47.776122090375495 97.66881543527012 H 0.0 **** 0.06
25650 H 82.97222941967209 49.335071458406816 98.3022906453426 H 0.0 **** 0.06
25651 C 24.200020814061475 38.69049022439709 72.65874743689008 C 0.0 **** -0.24
25652 H 24.735044770376845 37.746261409936274 72.56029100825455 H 0.0 **** 0.06
25653 H 23.341266441200418 38.55397260701858 73.3165219380891 H 0.0 **** 0.06
25654 H 23.85628732701298 39.01734375192396 71.67683373905311 H 0.0 **** 0.06
25655 H 24.865257332041836 39.44415061044987 73.07961530570594 H 0.0 **** 0.06
25656 C 44.08257189512267 41.38595490284638 82.54655243288352 C 0.0 **** -0.24
25657 H 45.028695741729905 41.48702263467061 82.01491687685649 H 0.0 **** 0.06
25658 H 43.41638189910353 42.19994547464836 82.25891431658789 H 0.0 **** 0.06
25659 H 44.264001246376864 41.427618033956435 83.62068835619306 H 0.0 **** 0.06
25660 H 43.622242278183336 40.431930926085556 82.29088028484608 H 0.0 **** 0.06
25661 C 100.70115517260092 69.31146044968455 85.80025169719806 C 0.0 **** -0.24
25662 H 101.59132122964908 69.31328074218527 85.17145009938315 H 0.0 **** 0.06
25663 H 100.23328800660704 70.29525670146666 85.7698935764088 H 0.0 **** 0.06
25664 H 100.98261737043845 69.07363660405741 86.82667817245462 H 0.0 **** 0.06
25665 H 99.99861383014954 68.56251573193367 85.43341533663906 H 0.0 **** 0.06
25666 C 30.27348586988611 30.055416907958517 2.292305735485172 C 0.0 **** -0.24
25667 H 30.16791382515587 31.13962424314289 2.333237387129543 H 0.0 **** 0.06
25668 H 29.518484241429412 29.642241254066278 1.6220558447317615 H 0.0 **** 0.06
25669 H 30.140371337375754 29.639442598065187 3.290549310856818 H 0.0 **** 0.06
25670 H 31.266554616022056 29.801410635091116 1.921256298925698 H 0.0 **** 0.06
25671 C 81.7041578223633 17.050363534561143 47.70530753040745 C 0.0 **** -0.24
25672 H 80.9656227105709 17.826808364029773 47.50556842439539 H 0.0 **** 0.06
25673 H 81.90691257031742 16.497763388844618 46.78694154604487 H 0.0 **** 0.06
25674 H 81.31798057650337 16.369131139581583 48.46276306250519 H 0.0 **** 0.06
25675 H 82.62521894042729 17.509273758768927 48.06426044572956 H 0.0 **** 0.06
25676 C 67.3138735817372 111.29211761533973 82.70265427928905 C 0.0 **** -0.24
25677 H 66.8555664190499 110.60137154756194 83.41071206502662 H 0.0 **** 0.06
25678 H 67.17672861839759 110.9172701973005 81.68869272962561 H 0.0 **** 0.06
25679 H 68.3790645850878 111.37855525382633 82.91789616519819 H 0.0 **** 0.06
25680 H 66.84425921596963 112.27079023974852 82.79549589951506 H 0.0 **** 0.06
25681 C 31.89578600915695 3.6209356020413566 30.09694107348244 C 0.0 **** -0.24
25682 H 30.87213319368516 3.2862863100613424 30.267605083486842 H 0.0 **** 0.06
25683 H 32.342817254977604 3.0282066273643125 29.29884094254018 H 0.0 **** 0.06
25684 H 32.47528730832727 3.497612532964837 31.01193017840913 H 0.0 **** 0.06
25685 H 31.88945620640135 4.672679592209846 29.80928511474582 H 0.0 **** 0.06
25686 C 8.751729519317287 48.03521826430267 46.34397420153954 C 0.0 **** -0.24
25687 H 9.698264915510993 48.45844468375233 46.00859158580022 H 0.0 **** 0.06
25688 H 8.21246265025733 47.62760675804472 45.487392249660616 H 0.0 **** 0.06
25689 H 8.150839892508747 48.81446892411927 46.8134339854758 H 0.0 **** 0.06
25690 H 8.94348241060126 47.24042940739585 47.06435663608994 H 0.0 **** 0.06
25691 C 26.03025035879992 7.990302288549557 100.55430249590123 C 0.0 **** -0.24
25692 H 26.85149938569458 7.406885797373846 100.14025477055964 H 0.0 **** 0.06
25693 H 25.798797409130117 8.818370534596667 99.88277660550324 H 0.0 **** 0.06
25694 H 26.318837299139744 8.382449685523767 101.52957394174331 H 0.0 **** 0.06
25695 H 25.151146139115184 7.354645210202804 100.66418556071298 H 0.0 **** 0.06
25696 C 58.23600686614782 59.85147381466275 80.48830981398004 C 0.0 **** -0.24
25697 H 59.176273159841 59.32232184738937 80.6442101009336 H 0.0 **** 0.06
25698 H 58.060859925025625 59.973228751035556 79.41841552400913 H 0.0 **** 0.06
25699 H 58.288501916173004 60.832293332292785 80.96130955533417 H 0.0 **** 0.06
25700 H 57.419667282608884 59.279268625085216 80.92792810048584 H 0.0 **** 0.06
25701 C 19.992891286937834 103.60097493651435 109.75731430297503 C 0.0 **** -0.24
25702 H 19.76375537910218 103.07728105429666 110.6862227644404 H 0.0 **** 0.06
25703 H 19.090524891553514 104.0846646950699 109.38203234255406 H 0.0 **** 0.06
25704 H 20.356064747763753 102.8871593342821 109.01829827947148 H 0.0 **** 0.06
25705 H 20.75878645741909 104.35326365155927 109.94356042178794 H 0.0 **** 0.06
25706 C 18.603787451666122 106.34530565470982 57.67479958799962 C 0.0 **** -0.24
25707 H 17.858212113252765 105.6355830521706 57.316218166712964 H 0.0 **** 0.06
25708 H 18.514944931819368 107.27901359027231 57.118805047652025 H 0.0 **** 0.06
25709 H 19.600127681185796 105.92876029419165 57.52867474960128 H 0.0 **** 0.06
25710 H 18.442012668264198 106.53690761512905 58.735254660485616 H 0.0 **** 0.06
25711 C 33.96830984303702 41.191579103577396 54.99201818569926 C 0.0 **** -0.24
25712 H 34.42995920840712 42.11992815921576 55.33054346723437 H 0.0 **** 0.06
25713 H 33.41527006284781 41.376130803228875 54.07049058469678 H 0.0 **** 0.06
25714 H 33.284893992236725 40.826064187854854 55.75913816935571 H 0.0 **** 0.06
25715 H 34.74219650828159 40.44716043740527 54.809986429304026 H 0.0 **** 0.06
25716 C 16.767470443867126 50.256678758921865 82.36035188417512 C 0.0 **** -0.24
25717 H 16.53226602045015 50.70675149155265 83.32483402750998 H 0.0 **** 0.06
25718 H 17.819004777880508 50.42717141531449 82.12722263431536 H 0.0 **** 0.06
25719 H 16.14562748983485 50.70900334333788 81.5883608527748 H 0.0 **** 0.06
25720 H 16.573846753802115 49.18497226817615 82.4019143109274 H 0.0 **** 0.06
25721 C 101.04086708483692 91.74736665620227 8.763811285570242 C 0.0 **** -0.24
25722 H 101.71552077860156 92.12280000583513 9.533425215285249 H 0.0 **** 0.06
25723 H 100.77897713790503 90.71187656455777 8.982878298147952 H 0.0 **** 0.06
25724 H 101.534059579125 91.79923847532982 7.792905061868154 H 0.0 **** 0.06
25725 H 100.1369668904739 92.3563333337463 8.744958665441516 H 0.0 **** 0.06
25726 C 67.22488794928512 60.46816132286647 84.20737300218588 C 0.0 **** -0.24
25727 H 66.90137565060405 61.08445573690474 85.04625403253698 H 0.0 **** 0.06
25728 H 66.44953362065732 59.73765878905866 83.9732593784658 H 0.0 **** 0.06
25729 H 68.145589888774 59.949210731268074 84.4718470960743 H 0.0 **** 0.06
25730 H 67.40141407723908 61.102377615256664 83.33857520296635 H 0.0 **** 0.06
25731 C 1.1056882691112548 57.830697980815984 81.18625969653175 C 0.0 **** -0.24
25732 H 0.201799615821443 57.22999390158421 81.29021802180802 H 0.0 **** 0.06
25733 H 0.9899110682650587 58.51792525513417 80.34782858183445 H 0.0 **** 0.06
25734 H 1.958007699798685 57.17646298148625 81.00578121191802 H 0.0 **** 0.06
25735 H 1.2716447160505595 58.3986706761944 82.10121478719145 H 0.0 **** 0.06
25736 C 20.751548071940334 82.07221729682789 29.64150165544433 C 0.0 **** -0.24
25737 H 21.03023397764136 82.22508490206246 30.684096997538603 H 0.0 **** 0.06
25738 H 21.638851919433193 82.15816613529933 29.012221736986817 H 0.0 **** 0.06
25739 H 20.02187763176613 82.8258294080967 29.345827501146715 H 0.0 **** 0.06
25740 H 20.316774887025957 81.07953615912243 29.52312156270503 H 0.0 **** 0.06
25741 C 81.66993311405281 29.970311408149414 45.924403211524776 C 0.0 **** -0.24
25742 H 81.4843843426363 29.03267517083267 45.40137904836376 H 0.0 **** 0.06
25743 H 81.01798110548373 30.746319341705487 45.52199581180859 H 0.0 **** 0.06
25744 H 82.71183273281099 30.263669829276253 45.78595985564717 H 0.0 **** 0.06
25745 H 81.46806975876757 29.83978969221628 46.98722380586313 H 0.0 **** 0.06
25746 C 3.9651401635487673 24.633376770262544 32.274375903151764 C 0.0 **** -0.24
25747 H 4.070043941306096 23.79592135507903 31.583527077347156 H 0.0 **** 0.06
25748 H 3.5627542107371966 25.495365687204327 31.74128294700904 H 0.0 **** 0.06
25749 H 4.940917474507202 24.886263091951037 32.689831762556025 H 0.0 **** 0.06
25750 H 3.2874376405106887 24.3556344188016 33.080729908883455 H 0.0 **** 0.06
25751 C 4.553744546375299 22.17770843669499 49.27198619578954 C 0.0 **** -0.24
25752 H 5.494274627153175 22.01248101165056 48.74573198276704 H 0.0 **** 0.06
25753 H 4.072641113594216 21.21857048417139 49.46481330036664 H 0.0 **** 0.06
25754 H 3.898884613132566 22.796794131068243 48.659451531091435 H 0.0 **** 0.06
25755 H 4.7515758509642865 22.68254827715959 50.21818541776085 H 0.0 **** 0.06
25756 C 24.48685506155624 7.20588060695701 26.341682595086354 C 0.0 **** -0.24
25757 H 24.149121913796876 6.326964225519546 26.890580300055632 H 0.0 **** 0.06
25758 H 25.222329829137323 7.746125145387126 26.938117099798575 H 0.0 **** 0.06
25759 H 23.63538794776821 7.855689722332343 26.137534844582262 H 0.0 **** 0.06
25760 H 24.939202802309012 6.89450781251449 25.40028263908121 H 0.0 **** 0.06
25761 C 95.65168586540739 26.367714026884016 1.0014760680804216 C 0.0 **** -0.24
25762 H 96.64106346636257 26.042808148249918 1.3227461983269677 H 0.0 **** 0.06
25763 H 95.4318451624842 27.343384191478663 1.4363096630253267 H 0.0 **** 0.06
25764 H 94.90643499263953 25.645200606417234 1.333788977290567 H 0.0 **** 0.06
25765 H 95.62753272637875 26.44082933538712 -0.08588411943270557 H 0.0 **** 0.06
25766 C 50.39008921413256 18.84480275721836 11.370806884022045 C 0.0 **** -0.24
25767 H 49.33962110960812 18.666227449785367 11.601469056022921 H 0.0 **** 0.06
25768 H 50.496682196118115 19.817168996889166 10.88943462809064 H 0.0 **** 0.06
25769 H 50.752974704633516 18.065830994892167 10.701043907173812 H 0.0 **** 0.06
25770 H 50.972003701315145 18.830285508505312 12.2932933424689 H 0.0 **** 0.06
25771 C 81.33151501229338 87.49479690025362 60.58579432779303 C 0.0 **** -0.24
25772 H 80.77960863422308 86.75291379127964 60.00844070566817 H 0.0 **** 0.06
25773 H 81.6794150946198 88.28659166980921 59.921981104997705 H 0.0 **** 0.06
25774 H 82.18669072229105 87.0192643428621 61.0649306556439 H 0.0 **** 0.06
25775 H 80.67808534648216 87.91947921983461 61.347928169711544 H 0.0 **** 0.06
25776 C 66.39129913206915 112.48742991381893 106.70470755735255 C 0.0 **** -0.24
25777 H 67.18362476047821 113.1368297006247 106.33258338719799 H 0.0 **** 0.06
25778 H 65.69266012694078 113.07333779292937 107.30281786921111 H 0.0 **** 0.06
25779 H 66.8271051804332 111.70150244137382 107.32155152962848 H 0.0 **** 0.06
25780 H 65.86356662049769 112.03848526719847 105.86426755758973 H 0.0 **** 0.06
25781 C 66.5571181682291 102.82831957056447 82.31756930808012 C 0.0 **** -0.24
25782 H 65.66495744048149 102.30203536761076 82.6581270988186 H 0.0 **** 0.06
25783 H 66.30783364310048 103.44090303165916 81.45038524886326 H 0.0 **** 0.06
25784 H 67.32353466027516 102.10397147327734 82.04314091358938 H 0.0 **** 0.06
25785 H 66.92970864963979 103.46642236222891 83.1183954476563 H 0.0 **** 0.06
25786 C 101.63038055850348 74.1053173423442 105.41717220569069 C 0.0 **** -0.24
25787 H 101.13564722075321 75.01767013429486 105.75268642133602 H 0.0 **** 0.06
25788 H 101.97947230165542 73.54272020413774 106.28392528006592 H 0.0 **** 0.06
25789 H 102.48035157603061 74.36547906069023 104.78603152374086 H 0.0 **** 0.06
25790 H 100.9267843498553 73.4986743362941 104.84770141101029 H 0.0 **** 0.06
25791 C 109.59194977919579 75.11882126111095 50.40891539250924 C 0.0 **** -0.24
25792 H 109.52622585035918 74.49131960993216 49.51995170044739 H 0.0 **** 0.06
25793 H 109.99297313807375 74.53395039502408 51.23702574565482 H 0.0 **** 0.06
25794 H 108.59844447743741 75.48498977216573 50.66958430523903 H 0.0 **** 0.06
25795 H 110.24945952281195 75.96471352230625 50.2079088803431 H 0.0 **** 0.06
25796 C 102.29485836963471 41.85608979326332 17.845364773982737 C 0.0 **** -0.24
25797 H 103.07185762303644 42.440101189355005 18.338943802117 H 0.0 **** 0.06
25798 H 102.74668024046733 40.999571168543355 17.34528056306891 H 0.0 **** 0.06
25799 H 101.7851998519447 42.47861381639416 17.10970898019039 H 0.0 **** 0.06
25800 H 101.57588986967045 41.506582959347995 18.58668770547311 H 0.0 **** 0.06
25801 C 96.08260598083882 19.48031637206958 2.8903504548521823 C 0.0 **** -0.24
25802 H 97.07408406523138 19.45119228948907 2.4383234738836705 H 0.0 **** 0.06
25803 H 95.8458297582647 18.501554711613807 3.3090545185228137 H 0.0 **** 0.06
25804 H 95.34420620923976 19.739040218160653 2.131869669116014 H 0.0 **** 0.06
25805 H 96.066828181944 20.228437384736168 3.6829552770866343 H 0.0 **** 0.06
25806 C 111.321894851637 61.150545587498236 98.21208295135668 C 0.0 **** -0.24
25807 H 111.42518633504737 61.6392632314875 99.18129777189952 H 0.0 **** 0.06
25808 H 111.80725073649245 60.17493832504814 98.2445720737872 H 0.0 **** 0.06
25809 H 111.79024944133096 61.76512588591044 97.44418950386273 H 0.0 **** 0.06
25810 H 110.26401347935673 61.02318935912066 97.9817531899962 H 0.0 **** 0.06
25811 C 76.40934952669528 16.940786921079496 25.192596987992687 C 0.0 **** -0.24
25812 H 76.52844594789778 17.444046879080176 26.151817408943515 H 0.0 **** 0.06
25813 H 75.43277307892322 16.456368734816017 25.15600541967038 H 0.0 **** 0.06
25814 H 77.19212666766629 16.191011886526503 25.07618927887799 H 0.0 **** 0.06
25815 H 76.48333505206219 17.67065828940158 24.38697408174795 H 0.0 **** 0.06
25816 C 70.90727638302826 55.25162285246947 41.581848085171316 C 0.0 **** -0.24
25817 H 71.75355311392099 55.792521204569084 42.00489186012874 H 0.0 **** 0.06
25818 H 70.04504908117352 55.354240274215584 42.24137532648513 H 0.0 **** 0.06
25819 H 71.16481411899963 54.19738232930425 41.48125181143183 H 0.0 **** 0.06
25820 H 70.66687574405941 55.66238904986392 40.601134535798394 H 0.0 **** 0.06
25821 C 62.28431757164052 64.63673373486128 65.79190015017454 C 0.0 **** -0.24
25822 H 61.35191020896688 64.90608526387214 66.2872713337643 H 0.0 **** 0.06
25823 H 62.108184671035 63.795173968760224 65.12063056934946 H 0.0 **** 0.06
25824 H 63.0244141095578 64.3550302158097 66.54078773985066 H 0.0 **** 0.06
25825 H 62.65087330443598 65.48861186654784 65.21945896269239 H 0.0 **** 0.06
25826 C 80.5353873080995 98.63159584954971 20.21509635435899 C 0.0 **** -0.24
25827 H 80.23476394756156 98.60111185849871 21.262557443093243 H 0.0 **** 0.06
25828 H 81.47917598927097 99.17018323874055 20.123970086094403 H 0.0 **** 0.06
25829 H 79.7685522372725 99.14092547534324 19.631551421175203 H 0.0 **** 0.06
25830 H 80.65998477763327 97.61386554551726 19.84333168647177 H 0.0 **** 0.06
25831 C 22.93830757082025 100.10567994777045 108.25110319087625 C 0.0 **** -0.24
25832 H 23.01559620844345 99.44747930024877 107.38568146312927 H 0.0 **** 0.06
25833 H 23.51297535349831 101.01409752944966 108.06831678424527 H 0.0 **** 0.06
25834 H 23.33118836530301 99.5972566404435 109.13070237414934 H 0.0 **** 0.06
25835 H 21.892209281070343 100.36372605005411 108.41787249886555 H 0.0 **** 0.06
25836 C 78.59192365194428 82.23620412048305 30.360249748814304 C 0.0 **** -0.24
25837 H 78.44040236022516 81.83287494527548 29.35806794295374 H 0.0 **** 0.06
25838 H 78.95396167554313 81.44515433104334 31.018046959724657 H 0.0 **** 0.06
25839 H 77.64738541530812 82.62382860833185 30.742280087701857 H 0.0 **** 0.06
25840 H 79.32570841651162 83.04107848059871 30.31988192124431 H 0.0 **** 0.06
25841 C 64.71071506262732 62.79737063610989 71.07319296603245 C 0.0 **** -0.24
25842 H 65.04845618038632 62.22575323865536 71.93765920530925 H 0.0 **** 0.06
25843 H 65.27101918385625 63.73027896232668 71.01263120976586 H 0.0 **** 0.06
25844 H 63.64824735073469 63.0180426912753 71.17750314122591 H 0.0 **** 0.06
25845 H 64.87324138049266 62.21557108155059 70.16615226290781 H 0.0 **** 0.06
25846 C 92.57994945387486 5.113100457404512 45.9326115153975 C 0.0 **** -0.24
25847 H 91.57184645668627 5.000889920992897 45.53398573454635 H 0.0 **** 0.06
25848 H 92.88453281182427 4.184024042206792 46.415413168575895 H 0.0 **** 0.06
25849 H 92.59502792972745 5.923108812864944 46.66069626288689 H 0.0 **** 0.06
25850 H 93.26871138381176 5.342027364229233 45.11974508497937 H 0.0 **** 0.06
25851 C 2.0255323353875525 55.59650735772291 56.3692201436038 C 0.0 **** -0.24
25852 H 2.1324650320979686 56.40582147165756 57.09114910469759 H 0.0 **** 0.06
25853 H 1.3871039652573813 55.92359041350815 55.54893650795043 H 0.0 **** 0.06
25854 H 1.5760438595529962 54.731992900100806 56.85891016374421 H 0.0 **** 0.06
25855 H 3.006629205749661 55.32453170670374 55.98032999671602 H 0.0 **** 0.06
25856 C 3.373763303939441 73.01749811686355 5.884826723511225 C 0.0 **** -0.24
25857 H 2.491964021478651 73.55650905823055 5.538044897474531 H 0.0 **** 0.06
25858 H 4.239813889585832 73.32016272278193 5.296117188791916 H 0.0 **** 0.06
25859 H 3.2123089548903465 71.94511470903944 5.768659634153961 H 0.0 **** 0.06
25860 H 3.5491063375868777 73.24699312356458 6.935450920045671 H 0.0 **** 0.06
25861 C 1.674156220263285 78.17341889941031 45.989033185149594 C 0.0 **** -0.24
25862 H 2.2866577332245015 78.5370502174467 46.8150353882458 H 0.0 **** 0.06
25863 H 0.7850326070972073 77.68217603466769 46.3847831812019 H 0.0 **** 0.06
25864 H 2.25026484881991 77.46202684400563 45.39651007520507 H 0.0 **** 0.06
25865 H 1.3777276189251495 79.01315315919027 45.3612587101332 H 0.0 **** 0.06
25866 C 32.13173248231444 73.19457046010368 15.791384433054759 C 0.0 **** -0.24
25867 H 31.992712658829298 72.97710401105536 14.73298462690991 H 0.0 **** 0.06
25868 H 32.87386274132501 73.98596408130712 15.904252945019948 H 0.0 **** 0.06
25869 H 32.47685418972039 72.29697709284798 16.303882731697314 H 0.0 **** 0.06
25870 H 31.184800514921818 73.51904534091568 16.222505384834278 H 0.0 **** 0.06
25871 C 21.284311919297707 3.521247365737759 48.74585601864698 C 0.0 **** -0.24
25872 H 20.914724546823493 2.7095572443584004 49.37433500970521 H 0.0 **** 0.06
25873 H 21.09394876282937 3.28384009428871 47.69906470174824 H 0.0 **** 0.06
25874 H 22.35604142079258 3.6420596767293834 48.90276884443224 H 0.0 **** 0.06
25875 H 20.771332796956045 4.446603662722051 49.008982538440684 H 0.0 **** 0.06
25876 C 53.89564858551054 76.14961754043753 25.647962528826913 C 0.0 **** -0.24
25877 H 54.364299849778256 76.03977185549536 26.626255094879944 H 0.0 **** 0.06
25878 H 52.90183700926806 75.70180377316592 25.66919461524381 H 0.0 **** 0.06
25879 H 54.50487635719498 75.64968509908903 24.89506581809517 H 0.0 **** 0.06
25880 H 53.81274776571268 77.20935614517282 25.403342359410054 H 0.0 **** 0.06
25881 C 18.067244020809653 94.00923584411305 94.61315798691001 C 0.0 **** -0.24
25882 H 17.959981427252245 94.15593660633175 95.68761318690795 H 0.0 **** 0.06
25883 H 19.11098875565733 94.14974668061154 94.32975879832887 H 0.0 **** 0.06
25884 H 17.446964121823214 94.73243025270409 94.08406058449111 H 0.0 **** 0.06
25885 H 17.75172549861759 92.99948440563361 94.35087669667604 H 0.0 **** 0.06
25886 C 3.7801997164793306 64.04268068283903 36.17960215615591 C 0.0 **** -0.24
25887 H 3.515970978822054 64.4527285869911 35.205244810882164 H 0.0 **** 0.06
25888 H 3.702447345293365 64.8237742113015 36.935604692533246 H 0.0 **** 0.06
25889 H 4.8027814936731374 63.66488910602552 36.14966069886549 H 0.0 **** 0.06
25890 H 3.100006235284866 63.2280905015626 36.42676001929195 H 0.0 **** 0.06
25891 C 81.00647291904411 90.14927219534593 20.241022001720722 C 0.0 **** -0.24
25892 H 81.4794553345946 91.05185785990233 20.627124456151336 H 0.0 **** 0.06
25893 H 79.99668360348028 90.06851943858015 20.64297087985355 H 0.0 **** 0.06
25894 H 81.58828418433464 89.27822778863401 20.541013055943722 H 0.0 **** 0.06
25895 H 80.96146060010423 90.19989620543535 19.153049345748457 H 0.0 **** 0.06
25896 C 107.09511263988215 15.730691403864839 13.856051631782762 C 0.0 **** -0.24
25897 H 106.20619965389358 15.104768427604071 13.936776728541517 H 0.0 **** 0.06
25898 H 107.8807006800415 15.32902557675908 14.496101931993394 H 0.0 **** 0.06
25899 H 106.8539657948501 16.746442080454884 14.17104244050445 H 0.0 **** 0.06
25900 H 107.43831898069038 15.742946184708273 12.822081343453476 H 0.0 **** 0.06
25901 C 75.5180932728585 0.0484639790373933 27.70817310282402 C 0.0 **** -0.24
25902 H 76.43647511505054 -0.4917236690075697 27.478059020347786 H 0.0 **** 0.06
25903 H 75.7606483896887 0.9551073200961184 28.263432786615155 H 0.0 **** 0.06
25904 H 74.86606426202792 -0.5836145150128687 28.310199912286663 H 0.0 **** 0.06
25905 H 75.01230714365812 0.3145205100164503 26.780742444567252 H 0.0 **** 0.06
25906 C 34.76243274645272 9.95640885323715 24.331015581218878 C 0.0 **** -0.24
25907 H 33.760949930514954 10.350639787131175 24.501961484410003 H 0.0 **** 0.06
25908 H 34.69140049892262 8.971276113603206 23.8687977150704 H 0.0 **** 0.06
25909 H 35.28751770595592 9.873661992715707 25.28323782384325 H 0.0 **** 0.06
25910 H 35.31045690105856 10.62854067840225 23.67159715681339 H 0.0 **** 0.06
25911 C 8.543967797919493 66.84967112253509 3.831697998396894 C 0.0 **** -0.24
25912 H 8.59192356126323 67.86695931494972 3.4439566736618232 H 0.0 **** 0.06
25913 H 9.45333667908477 66.63222811326892 4.393620833385977 H 0.0 **** 0.06
25914 H 8.452773801264414 66.14776941921389 3.002941684698955 H 0.0 **** 0.06
25915 H 7.679556406014967 66.75228695467689 4.4884480680066225 H 0.0 **** 0.06
25916 C 75.52505642975919 40.53669256521717 98.85292600935009 C 0.0 **** -0.24
25917 H 76.33078557813616 39.8154343568635 98.72048937996547 H 0.0 **** 0.06
25918 H 75.88081446726429 41.532539758154975 98.58467035178933 H 0.0 **** 0.06
25919 H 75.20205146626034 40.53389963680372 99.89355482615306 H 0.0 **** 0.06
25920 H 74.6865268085237 40.26623207916345 98.21119663554242 H 0.0 **** 0.06
25921 C 25.16721813923899 64.64588441212675 46.82079321144557 C 0.0 **** -0.24
25922 H 24.17467413079502 64.27069320143607 47.07257765252763 H 0.0 **** 0.06
25923 H 25.072085934140336 65.55801651399622 46.23145010541704 H 0.0 **** 0.06
25924 H 25.704085538743612 63.89291135574686 46.24378856419997 H 0.0 **** 0.06
25925 H 25.71647590464336 64.86117411058922 47.73819265043987 H 0.0 **** 0.06
25926 C 73.2440875408619 56.50868838087263 23.21100880132971 C 0.0 **** -0.24
25927 H 72.96647549430509 57.07580450644792 24.09854029087137 H 0.0 **** 0.06
25928 H 74.08601566560259 55.85683578968491 23.44508282158182 H 0.0 **** 0.06
25929 H 73.52800487787394 57.196381825556244 22.414014386507148 H 0.0 **** 0.06
25930 H 72.3970930683594 55.90510267578338 22.886133437474086 H 0.0 **** 0.06
25931 C 106.13934123896911 90.57441351832344 5.522355497783991 C 0.0 **** -0.24
25932 H 106.5628346240833 89.7986915101888 4.8851882903827 H 0.0 **** 0.06
25933 H 106.47923597332819 90.42717626615669 6.547888138635869 H 0.0 **** 0.06
25934 H 105.05141292066253 90.52002884768967 5.487374751166129 H 0.0 **** 0.06
25935 H 106.46583543787538 91.55277751328768 5.168594464421574 H 0.0 **** 0.06
25936 C 40.99065961266939 89.0354929717729 112.5488212753714 C 0.0 **** -0.24
25937 H 40.91857365585747 89.68225199044272 113.42274159601503 H 0.0 **** 0.06
25938 H 40.63943847017043 88.03611062209649 112.8052564627412 H 0.0 **** 0.06
25939 H 42.02909479068643 88.98281743382134 112.22041435117308 H 0.0 **** 0.06
25940 H 40.37598944224629 89.44098817846404 111.74469277065978 H 0.0 **** 0.06
25941 C 18.94568540919795 61.70692314618208 87.91434594333697 C 0.0 **** -0.24
25942 H 19.89418550527739 61.48066881443583 87.42662884363176 H 0.0 **** 0.06
25943 H 19.055771689957055 62.60532686965212 88.52153301504038 H 0.0 **** 0.06
25944 H 18.655388291537008 60.87090993209563 88.54967169194015 H 0.0 **** 0.06
25945 H 18.178851481656864 61.871616815026584 87.1572712276868 H 0.0 **** 0.06
25946 C 7.2469800375061055 57.612587727543485 58.29810837984701 C 0.0 **** -0.24
25947 H 7.654859540860144 58.45738571327519 57.74304796335571 H 0.0 **** 0.06
25948 H 6.908315925762707 56.84910020858308 57.59881249576307 H 0.0 **** 0.06
25949 H 6.4064640262653825 57.948885698862625 58.90487841709316 H 0.0 **** 0.06
25950 H 8.01953742094014 57.19682426703304 58.945824589659 H 0.0 **** 0.06
25951 C 14.389089002118737 94.21021272636577 30.30911463355403 C 0.0 **** -0.24
25952 H 15.046540857273556 94.55515794581035 31.106390102888327 H 0.0 **** 0.06
25953 H 14.964902254214849 93.62964375864485 29.588143635410404 H 0.0 **** 0.06
25954 H 13.940897950707154 95.06954556379142 29.810226617887224 H 0.0 **** 0.06
25955 H 13.602227380636577 93.58547945027641 30.733023315957837 H 0.0 **** 0.06
25956 C 83.1624766356361 12.882274372947187 9.590790884713243 C 0.0 **** -0.24
25957 H 82.47861739522119 13.583736764049767 10.067588937492658 H 0.0 **** 0.06
25958 H 83.86571713343062 12.499525340150171 10.330848588826186 H 0.0 **** 0.06
25959 H 83.70956947373668 13.390598944430682 8.796992465575556 H 0.0 **** 0.06
25960 H 82.59462821043775 12.053487454725516 9.165986346032028 H 0.0 **** 0.06
25961 C 17.705029871627648 97.56866766261271 34.55383231677365 C 0.0 **** -0.24
25962 H 18.16664891753339 97.5297038104722 33.56715401724415 H 0.0 **** 0.06
25963 H 17.153682126162845 96.64565963134928 34.73426582020073 H 0.0 **** 0.06
25964 H 17.021433124574987 98.41623800368146 34.60159617400899 H 0.0 **** 0.06
25965 H 18.479681920490492 97.68355597708162 35.31225587267954 H 0.0 **** 0.06
25966 C 29.067414537438623 68.32866800353705 7.949093015151895 C 0.0 **** -0.24
25967 H 28.810717338911147 68.56118798409892 8.982753217631158 H 0.0 **** 0.06
25968 H 28.15516227093704 68.14495949995461 7.381129634085367 H 0.0 **** 0.06
25969 H 29.696722705880717 67.43932956571882 7.922830195448544 H 0.0 **** 0.06
25970 H 29.60688707624638 69.16830218895245 7.511933835017539 H 0.0 **** 0.06
25971 C 68.04377997229437 10.727669447283631 71.8506085835595 C 0.0 **** -0.24
25972 H 69.02232905598981 10.269738977010661 71.70586477208303 H 0.0 **** 0.06
25973 H 67.29991003130039 9.947777251961014 72.01593888924145 H 0.0 **** 0.06
25974 H 67.77719902519573 11.304098584072563 70.96488152391089 H 0.0 **** 0.06
25975 H 68.07749851832762 11.388202661956996 72.71714902391227 H 0.0 **** 0.06
25976 C 106.26336995817431 45.254649747408735 65.99233070906854 C 0.0 **** -0.24
25977 H 107.16872178881884 45.212127586267115 65.38776784730933 H 0.0 **** 0.06
25978 H 105.49010960777781 44.63848230116258 65.53333887063712 H 0.0 **** 0.06
25979 H 105.91741104252526 46.28612961643938 66.05650296582292 H 0.0 **** 0.06
25980 H 106.47826095752151 44.88061992383041 66.99356143370579 H 0.0 **** 0.06
25981 C 83.38317921513331 96.0541658491793 91.26865365121256 C 0.0 **** -0.24
25982 H 84.46552687648747 96.18208517900274 91.30141980323103 H 0.0 **** 0.06
25983 H 82.96531048928122 96.6877560523458 90.48718548486468 H 0.0 **** 0.06
25984 H 82.95583026865174 96.33346475950313 92.2314149688182 H 0.0 **** 0.06
25985 H 83.14785559115938 95.01092454831937 91.05594300409714 H 0.0 **** 0.06
25986 C 59.665929059226734 57.094699003837576 98.30442898458068 C 0.0 **** -0.24
25987 H 59.66623456209796 56.06871386995553 97.93841161202502 H 0.0 **** 0.06
25988 H 58.68813481423238 57.32976272481952 98.72505335411896 H 0.0 **** 0.06
25989 H 59.879412446138694 57.774489616650385 97.47839323171019 H 0.0 **** 0.06
25990 H 60.42996433827951 57.20598729013548 99.07303377934173 H 0.0 **** 0.06
25991 C 46.41190798424 94.09482066210774 103.49678676937992 C 0.0 **** -0.24
25992 H 47.235589004966926 94.67872334468817 103.90774252489737 H 0.0 **** 0.06
25993 H 46.777886137759594 93.11313013370307 103.19558898913209 H 0.0 **** 0.06
25994 H 45.999327863762346 94.6112894959071 102.62971409890426 H 0.0 **** 0.06
25995 H 45.637136600473525 93.9782209397649 104.253515324873 H 0.0 **** 0.06
25996 C 22.94017327135386 10.514507372820063 34.625255666248904 C 0.0 **** -0.24
25997 H 22.355455687797516 11.317958395742131 34.1780541992496 H 0.0 **** 0.06
25998 H 22.976510598765532 10.649316070984874 35.70695742117769 H 0.0 **** 0.06
25999 H 23.953174542675207 10.535763740306834 34.22286033082875 H 0.0 **** 0.06
26000 H 22.476634603963063 9.555518592383219 34.39389272643908 H 0.0 **** 0.06
26001 C 112.19110239319073 78.60943347841487 90.27897766986817 C 0.0 **** -0.24
26002 H 113.18113392005472 78.15943311004958 90.20289446686058 H 0.0 **** 0.06
26003 H 112.27184275599217 79.68914962555823 90.14750710466606 H 0.0 **** 0.06
26004 H 111.76788207746196 78.39317815594234 91.25974602770933 H 0.0 **** 0.06
26005 H 111.54433690197484 78.19564913739873 89.50523655447844 H 0.0 **** 0.06
26006 C 86.07001325961153 18.918373778917683 72.352250025079 C 0.0 **** -0.24
26007 H 86.87616799415463 19.532684870140372 71.94974551169469 H 0.0 **** 0.06
26008 H 85.88696544224064 18.0761314716829 71.68496763767561 H 0.0 **** 0.06
26009 H 85.1641826956581 19.518026553093677 72.43782976420931 H 0.0 **** 0.06
26010 H 86.35350034168545 18.546948017114346 73.3370314060245 H 0.0 **** 0.06
26011 C 35.6030260599732 47.933675256651284 26.44823672064146 C 0.0 **** -0.24
26012 H 36.34801864632654 48.49207467377846 27.01464072888274 H 0.0 **** 0.06
26013 H 36.097897162301706 47.36867314714573 25.658023696154913 H 0.0 **** 0.06
26014 H 34.88726161743551 48.62664520303379 26.007960435106185 H 0.0 **** 0.06
26015 H 35.081847295985696 47.24634364335586 27.11420391841736 H 0.0 **** 0.06
26016 C 21.34387683263687 104.48342489119383 30.95808262989661 C 0.0 **** -0.24
26017 H 21.645636769381667 104.97060190418011 30.03132114922343 H 0.0 **** 0.06
26018 H 20.434907867192564 103.90738863792583 30.78684594395088 H 0.0 **** 0.06
26019 H 21.15763414622732 105.23932874517732 31.7219219427229 H 0.0 **** 0.06
26020 H 22.13949663730832 103.81741710678318 31.292715522731868 H 0.0 **** 0.06
26021 C 4.176809401514532 20.382912250916178 106.47079340107018 C 0.0 **** -0.24
26022 H 5.252439469369705 20.454942204740746 106.63732608441283 H 0.0 **** 0.06
26023 H 3.984837947871668 20.20900762044326 105.41211945790744 H 0.0 **** 0.06
26024 H 3.6982498686643055 21.311858010644897 106.7798595808323 H 0.0 **** 0.06
26025 H 3.7742533879605276 19.5544295118234 107.05460369805982 H 0.0 **** 0.06
26026 C 31.90707434471622 103.4030192794888 29.21527156328937 C 0.0 **** -0.24
26027 H 31.106154431010367 103.1372853991025 28.52478968164128 H 0.0 **** 0.06
26028 H 32.13675544654822 102.54695951339787 29.85175078937371 H 0.0 **** 0.06
26029 H 31.588363018069174 104.24165172432515 29.83495708610483 H 0.0 **** 0.06
26030 H 32.795446087560435 103.68517078020972 28.651166514620982 H 0.0 **** 0.06
26031 C 45.8259737408639 44.489692165535644 49.09251668996151 C 0.0 **** -0.24
26032 H 46.51269450000794 45.267950984241565 48.76109076493729 H 0.0 **** 0.06
26033 H 46.39452342178504 43.62383492493694 49.432967761553314 H 0.0 **** 0.06
26034 H 45.180898881926794 44.19824458852855 48.26362699464674 H 0.0 **** 0.06
26035 H 45.215778159735834 44.86873816443557 49.91238123870867 H 0.0 **** 0.06
26036 C 46.493182558786685 47.06102959372029 92.2802945450091 C 0.0 **** -0.24
26037 H 46.694765845335695 46.01359108580752 92.5054126465746 H 0.0 **** 0.06
26038 H 45.423795739805485 47.25173513158737 92.36820128652067 H 0.0 **** 0.06
26039 H 46.8196466254482 47.28265979114593 91.26453393221578 H 0.0 **** 0.06
26040 H 47.03482393498817 47.69370926864315 92.98283592340846 H 0.0 **** 0.06
26041 C 75.35259205616069 81.95595028598947 57.71258838727166 C 0.0 **** -0.24
26042 H 75.8108256293473 80.97618094105073 57.846088921873566 H 0.0 **** 0.06
26043 H 75.75481980939571 82.424312626129 56.814003404593464 H 0.0 **** 0.06
26044 H 75.57255259813851 82.58110013800612 58.57734057672983 H 0.0 **** 0.06
26045 H 74.27350571810118 81.84144344652782 57.611014598958846 H 0.0 **** 0.06
26046 C 111.99644268177389 96.73408612106385 56.54041466818188 C 0.0 **** -0.24
26047 H 112.77360206449193 97.05784931610776 55.847356131447725 H 0.0 **** 0.06
26048 H 111.09404882843077 96.48153969159458 55.982092967557094 H 0.0 **** 0.06
26049 H 111.7767960923897 97.53993413390671 57.24108989454322 H 0.0 **** 0.06
26050 H 112.34162594893824 95.85870300076621 57.089677118809334 H 0.0 **** 0.06
26051 C 65.42101849471285 72.88318068374366 2.4577628013407065 C 0.0 **** -0.24
26052 H 65.76286339995508 72.61633155114004 3.4569359070031567 H 0.0 **** 0.06
26053 H 64.33425210838087 72.97135614059692 2.4566044678419416 H 0.0 **** 0.06
26054 H 65.72303441999478 72.10981312364612 1.7512690597114045 H 0.0 **** 0.06
26055 H 65.86342776431437 73.83484550556517 2.1646255459909156 H 0.0 **** 0.06
26056 C 97.5142394426233 108.24258160842896 90.13962500588315 C 0.0 **** -0.24
26057 H 96.71555645414549 108.78844202335449 90.64128549672779 H 0.0 **** 0.06
26058 H 97.16367374499163 107.9004105450096 89.16512198816392 H 0.0 **** 0.06
26059 H 97.80287905500651 107.38252007669212 90.74461903764495 H 0.0 **** 0.06
26060 H 98.37432981332856 108.89819548009268 90.00639831322619 H 0.0 **** 0.06
26061 C 56.451644432356204 46.79321674011075 110.68071641477827 C 0.0 **** -0.24
26062 H 57.28435452301288 46.23149261551865 110.25630934972715 H 0.0 **** 0.06
26063 H 55.5900205344194 46.72198421148184 110.015851274154 H 0.0 **** 0.06
26064 H 56.738344036211856 47.83862585139792 110.79387340461109 H 0.0 **** 0.06
26065 H 56.19431060730271 46.37902852046662 111.65549628905127 H 0.0 **** 0.06
26066 C 73.88853105818185 45.40345253444224 25.06238816533731 C 0.0 **** -0.24
26067 H 73.04172239699153 45.05601314730558 24.470521327724004 H 0.0 **** 0.06
26068 H 73.86650938060188 44.92722757192041 26.043353660979875 H 0.0 **** 0.06
26069 H 73.8293119020255 46.48546185089293 25.18253538120695 H 0.0 **** 0.06
26070 H 74.81760360497316 45.14434147944553 24.554311326902216 H 0.0 **** 0.06
26071 C 34.285333631547644 89.27125091939917 112.25192294934011 C 0.0 **** -0.24
26072 H 34.99103063614075 88.44688658790898 112.15521974239613 H 0.0 **** 0.06
26073 H 34.77329066022685 90.20265342075103 111.96401370819122 H 0.0 **** 0.06
26074 H 33.94946263195067 89.34212429874503 113.28624011513051 H 0.0 **** 0.06
26075 H 33.42777128022516 89.09387155036697 111.60303563012796 H 0.0 **** 0.06
26076 C 37.72766732383153 89.10862351852063 26.207482993772345 C 0.0 **** -0.24
26077 H 38.3586915749776 88.39477268786251 25.677821981602015 H 0.0 **** 0.06
26078 H 37.57476594904385 88.76786743664826 27.23149073348317 H 0.0 **** 0.06
26079 H 36.76586209221787 89.1877072151704 25.702269407434308 H 0.0 **** 0.06
26080 H 38.21354692911058 90.08452015636209 26.218168380836296 H 0.0 **** 0.06
26081 C 37.713775782612686 34.32159380862271 32.4519296482335 C 0.0 **** -0.24
26082 H 36.93587502870068 34.978838076191664 32.84030288356543 H 0.0 **** 0.06
26083 H 37.79200406695429 34.45142929613638 31.371180077071372 H 0.0 **** 0.06
26084 H 37.45937296132226 33.286319825607904 32.675838763352544 H 0.0 **** 0.06
26085 H 38.666874859579565 34.571958294829926 32.91787939677235 H 0.0 **** 0.06
26086 C 2.9050937861414727 13.797438847766642 78.34249292154769 C 0.0 **** -0.24
26087 H 3.8714415824969226 13.306132836326611 78.45816382075844 H 0.0 **** 0.06
26088 H 2.2520545485075374 13.514843476532917 79.16761590986587 H 0.0 **** 0.06
26089 H 2.4532605135648886 13.491239375814303 77.39918759128295 H 0.0 **** 0.06
26090 H 3.0455793073210113 14.87897774087702 78.34470835702459 H 0.0 **** 0.06
26091 C 14.483700658211319 19.960351648273388 77.4459254199518 C 0.0 **** -0.24
26092 H 15.245146395239345 20.740424017687758 77.46492305466461 H 0.0 **** 0.06
26093 H 13.50354009764797 20.41404503190921 77.29874870591445 H 0.0 **** 0.06
26094 H 14.495729075819924 19.41813361801195 78.39108851652878 H 0.0 **** 0.06
26095 H 14.691954430982747 19.270490391913086 76.62810502210323 H 0.0 **** 0.06
26096 C 33.57980596340502 88.12722161585646 37.98985630689319 C 0.0 **** -0.24
26097 H 33.82661214132099 87.5221780962209 38.86221256071022 H 0.0 **** 0.06
26098 H 34.01911734998805 87.67811557510652 37.09930274815255 H 0.0 **** 0.06
26099 H 33.97586238569272 89.13427104552142 38.12308987472488 H 0.0 **** 0.06
26100 H 32.49628036872559 88.17515760071535 37.87639318974456 H 0.0 **** 0.06
26101 C 96.48344213884775 105.61387736894653 58.14827326816413 C 0.0 **** -0.24
26102 H 95.51156880244332 105.25439275752188 57.808518232712515 H 0.0 **** 0.06
26103 H 96.7084045394912 105.18462926215412 59.12447834694308 H 0.0 **** 0.06
26104 H 96.4614523826288 106.70141272621407 58.22469146707999 H 0.0 **** 0.06
26105 H 97.25040064639262 105.31518342630147 57.433351599880666 H 0.0 **** 0.06
26106 C 112.51334353527761 112.12937545045914 63.45083424172083 C 0.0 **** -0.24
26107 H 112.77588167652497 112.43043951933015 64.46484140245974 H 0.0 **** 0.06
26108 H 111.46263541723519 112.35392236897762 63.265479016901054 H 0.0 **** 0.06
26109 H 112.68215550265 111.0584084759495 63.33481400326286 H 0.0 **** 0.06
26110 H 113.13356515266734 112.67342657093778 62.738945292196775 H 0.0 **** 0.06
26111 C 8.377254144988086 79.87361620894 59.50136557430702 C 0.0 **** -0.24
26112 H 8.990011076065514 80.77494807951425 59.46277459735388 H 0.0 **** 0.06
26113 H 8.940406333788104 79.03422888112382 59.09233994244112 H 0.0 **** 0.06
26114 H 7.472322577495277 80.0248608800429 58.913222501720945 H 0.0 **** 0.06
26115 H 8.107458733215992 79.66124861418834 60.53616210682274 H 0.0 **** 0.06
26116 C 52.48210088342384 83.0178661578139 109.75162018432405 C 0.0 **** -0.24
26117 H 53.18155191954966 82.49104594292376 109.10260085257278 H 0.0 **** 0.06
26118 H 52.25909835613942 83.9969310556134 109.32615660499195 H 0.0 **** 0.06
26119 H 52.92689361255458 83.14289903965997 110.73831544431224 H 0.0 **** 0.06
26120 H 51.561405686502724 82.44036696995667 109.83859988796104 H 0.0 **** 0.06
26121 C 67.10872401193683 40.8647615855289 42.647161530615705 C 0.0 **** -0.24
26122 H 66.57221545800707 39.92204800609599 42.75589553533132 H 0.0 **** 0.06
26123 H 66.48686952511218 41.680854407241185 43.01446231460837 H 0.0 **** 0.06
26124 H 67.3420643962213 41.030619887197105 41.5954254997141 H 0.0 **** 0.06
26125 H 68.03363683365285 40.824761889224376 43.22222471573079 H 0.0 **** 0.06
26126 C 63.08845558853909 16.149579146580635 101.62595428640768 C 0.0 **** -0.24
26127 H 63.9074212782553 16.039689992873434 100.91539750597863 H 0.0 **** 0.06
26128 H 63.478432537031466 16.516347425096626 102.57583240633798 H 0.0 **** 0.06
26129 H 62.60811577987462 15.183283310625598 101.77859240573343 H 0.0 **** 0.06
26130 H 62.35997939046703 16.8603561542935 101.23362921690227 H 0.0 **** 0.06
26131 C 66.05809426728624 53.427615746206186 45.39563362185467 C 0.0 **** -0.24
26132 H 65.7751909218207 54.464721912477785 45.2174487589985 H 0.0 **** 0.06
26133 H 65.18097796179353 52.78829592606212 45.28992360204791 H 0.0 **** 0.06
26134 H 66.45900573950487 53.32961246525065 46.40499767783652 H 0.0 **** 0.06
26135 H 66.81615601693608 53.12850758975526 44.67202180364353 H 0.0 **** 0.06
26136 C 52.57114738975497 108.10854587223474 10.835451332527299 C 0.0 **** -0.24
26137 H 53.43650509015657 107.9185556004696 10.200928593859217 H 0.0 **** 0.06
26138 H 51.72425853346127 107.52057881339096 10.47934532971226 H 0.0 **** 0.06
26139 H 52.318963100732276 109.16813285446315 10.797929605461078 H 0.0 **** 0.06
26140 H 52.80444434755492 107.82650595750229 11.861971855407774 H 0.0 **** 0.06
26141 C 112.43630742042134 63.632945113900526 47.05168931483479 C 0.0 **** -0.24
26142 H 113.36393764887953 64.05971095786984 46.669285723966425 H 0.0 **** 0.06
26143 H 111.6659671927631 64.40365969625623 47.074848500808116 H 0.0 **** 0.06
26144 H 112.60116506308233 63.253130750938745 48.06042339619694 H 0.0 **** 0.06
26145 H 112.11727097613789 62.81780583228757 46.40359134045133 H 0.0 **** 0.06
26146 C 67.32069634166038 42.25418084555345 24.40387132840678 C 0.0 **** -0.24
26147 H 67.89968992565417 41.99454338574334 23.518391158971667 H 0.0 **** 0.06
26148 H 67.3389052168294 43.33537712574929 24.5463231298547 H 0.0 **** 0.06
26149 H 67.75464644614559 41.765284672044004 25.276963141566114 H 0.0 **** 0.06
26150 H 66.29106459795679 41.92088981629078 24.275321992177766 H 0.0 **** 0.06
26151 C 58.53672497626985 19.233107871985823 107.3617854219865 C 0.0 **** -0.24
26152 H 58.78130327954776 18.852005705506258 106.37079706384037 H 0.0 **** 0.06
26153 H 59.256041606079435 18.848230618423088 108.08596466920858 H 0.0 **** 0.06
26154 H 57.53306214647847 18.907977692152798 107.6386929373653 H 0.0 **** 0.06
26155 H 58.57668316435445 20.32159151563232 107.35312529900176 H 0.0 **** 0.06
26156 C 25.962151421073415 62.87474892061323 69.0831796987975 C 0.0 **** -0.24
26157 H 25.59691263036771 62.221197663362716 68.29035637292515 H 0.0 **** 0.06
26158 H 25.234646046714303 62.90175344950657 69.8946149047338 H 0.0 **** 0.06
26159 H 26.103065286160017 63.88094091847955 68.68763656392395 H 0.0 **** 0.06
26160 H 26.912648714857312 62.49533436814701 69.45806884575637 H 0.0 **** 0.06
26161 C 18.15289060736552 89.7148971066618 13.24067702333815 C 0.0 **** -0.24
26162 H 17.12434528808913 89.3564519926112 13.206195342323923 H 0.0 **** 0.06
26163 H 18.44281154495755 90.0792563457762 12.254900876926143 H 0.0 **** 0.06
26164 H 18.812110871894646 88.89789197698641 13.534717283812967 H 0.0 **** 0.06
26165 H 18.23107059291047 90.52367175433412 13.965828548019516 H 0.0 **** 0.06
26166 C 13.692444788877289 92.23414374377879 107.31827544881156 C 0.0 **** -0.24
26167 H 14.500449452109237 92.0302776771091 108.02214800899833 H 0.0 **** 0.06
26168 H 13.784329538046194 93.25507558097684 106.94665224087319 H 0.0 **** 0.06
26169 H 12.733463274602158 92.11552025399936 107.82233228583519 H 0.0 **** 0.06
26170 H 13.753282739972573 91.536242479549 106.48325751232636 H 0.0 **** 0.06
26171 C 81.62797470367937 49.58783703441023 102.61264786851095 C 0.0 **** -0.24
26172 H 82.33212539320738 50.41087177713345 102.4845147533845 H 0.0 **** 0.06
26173 H 82.10178038761029 48.79145392596334 103.18769098109101 H 0.0 **** 0.06
26174 H 81.33631806914204 49.20482154845081 101.63450219470232 H 0.0 **** 0.06
26175 H 80.74543151936288 49.94481562800368 103.14229881959542 H 0.0 **** 0.06
26176 C 46.1907247088958 75.47240560383793 36.09598282221131 C 0.0 **** -0.24
26177 H 46.06596376377206 75.31458782322082 37.166399348650856 H 0.0 **** 0.06
26178 H 45.31948156175429 75.0849866082178 35.567333297549595 H 0.0 **** 0.06
26179 H 47.085493441461495 74.95152707194893 35.754042911915974 H 0.0 **** 0.06
26180 H 46.29309977579385 76.5393565253438 35.89610158990166 H 0.0 **** 0.06
26181 C 31.85518502331854 53.299866329689756 47.67909072175266 C 0.0 **** -0.24
26182 H 31.801069950573435 54.37047020544433 47.87713188761245 H 0.0 **** 0.06
26183 H 30.975468680694974 52.80770029072504 48.09526401000065 H 0.0 **** 0.06
26184 H 32.75360248643176 52.88991610417723 48.14158431264897 H 0.0 **** 0.06
26185 H 31.891483613419382 53.130310877953626 46.60266060854596 H 0.0 **** 0.06
26186 C 88.33399045611884 96.84390617772627 86.12344660352076 C 0.0 **** -0.24
26187 H 89.31800093929667 97.24517869211084 86.36767226871828 H 0.0 **** 0.06
26188 H 88.44396419785096 96.01437348188955 85.4235853448503 H 0.0 **** 0.06
26189 H 87.72568624243578 97.62552191669099 85.66865962909824 H 0.0 **** 0.06
26190 H 87.84991975249906 96.48996587604185 87.03360768824251 H 0.0 **** 0.06
26191 C 66.01050465536204 29.149385748045887 94.22662176557 C 0.0 **** -0.24
26192 H 65.94190563116493 29.998893353135514 94.90710429107469 H 0.0 **** 0.06
26193 H 67.01873959711654 29.09533793821609 93.81481771090455 H 0.0 **** 0.06
26194 H 65.29320511501047 29.274556511739007 93.41599546844532 H 0.0 **** 0.06
26195 H 65.78902121976063 28.230724194860016 94.76975105165192 H 0.0 **** 0.06
26196 C 87.30877536298954 16.482419568849053 17.59751137983102 C 0.0 **** -0.24
26197 H 87.28533277340381 16.84649662216674 16.570532453040883 H 0.0 **** 0.06
26198 H 87.28805226833316 15.39228157219766 17.597147240639615 H 0.0 **** 0.06
26199 H 86.44215509288398 16.86345948553621 18.13718372771271 H 0.0 **** 0.06
26200 H 88.22098174914703 16.828779917456757 18.084091743045377 H 0.0 **** 0.06
26201 C 99.67183202006635 31.8196182868397 16.580835807712134 C 0.0 **** -0.24
26202 H 99.95730917928091 31.13566569787085 15.78084761811047 H 0.0 **** 0.06
26203 H 99.24841189935586 32.72646520869475 16.149312415388522 H 0.0 **** 0.06
26204 H 100.55182806505303 32.07410924485788 17.171162561985682 H 0.0 **** 0.06
26205 H 98.93117376587094 31.33999214937964 17.220278904849152 H 0.0 **** 0.06
26206 C 74.69460519572874 63.07064589713764 31.962402531700405 C 0.0 **** -0.24
26207 H 74.98521582981559 62.024575987162734 32.05782043651152 H 0.0 **** 0.06
26208 H 74.13160691983009 63.37276449000649 32.84571714649732 H 0.0 **** 0.06
26209 H 74.07492661943695 63.19519551774658 31.074921157783145 H 0.0 **** 0.06
26210 H 75.58857136320003 63.689012186527066 31.87171566266106 H 0.0 **** 0.06
26211 C 73.04871802607119 6.569213031947527 59.4093396372391 C 0.0 **** -0.24
26212 H 72.03401061572904 6.395311799451662 59.051899298166035 H 0.0 **** 0.06
26213 H 73.66760524406172 6.928474075363113 58.58705166334349 H 0.0 **** 0.06
26214 H 73.46192977171714 5.636460552853663 59.795197569523054 H 0.0 **** 0.06
26215 H 73.03028354079032 7.314742684736814 60.20441077055892 H 0.0 **** 0.06
26216 C 101.00431759578098 37.54263069342966 24.505603753288767 C 0.0 **** -0.24
26217 H 100.29650022927746 37.37214352601137 23.69372374088846 H 0.0 **** 0.06
26218 H 101.17570952308003 38.61245340448869 24.618937272592078 H 0.0 **** 0.06
26219 H 101.94678247499118 37.04509715840783 24.275489089661733 H 0.0 **** 0.06
26220 H 100.59656658907474 37.139013316037506 25.432079595479905 H 0.0 **** 0.06
26221 C 108.01705063162778 9.418034932280477 24.92500674148667 C 0.0 **** -0.24
26222 H 107.47188077372662 8.474534531154632 24.94766062101766 H 0.0 **** 0.06
26223 H 108.74236614126112 9.398977219857457 24.11166880621522 H 0.0 **** 0.06
26224 H 108.53683077334149 9.56022717275249 25.87267829938935 H 0.0 **** 0.06
26225 H 107.31612733550898 10.23839591129935 24.76809009967502 H 0.0 **** 0.06
26226 C 55.936955603018724 83.17835409618493 83.11772663076283 C 0.0 **** -0.24
26227 H 56.3144941310612 83.01554404516048 82.10819508486722 H 0.0 **** 0.06
26228 H 56.771036199112054 83.37718614603929 83.78986032406968 H 0.0 **** 0.06
26229 H 55.40388701739217 82.2886848988708 83.45310551337514 H 0.0 **** 0.06
26230 H 55.25710394305837 84.0304771798152 83.11833687889836 H 0.0 **** 0.06
26231 C 64.88928443052606 24.482647713299585 87.2781231097726 C 0.0 **** -0.24
26232 H 65.85165292102442 24.889458446299813 86.96951294006368 H 0.0 **** 0.06
26233 H 64.09539657442451 24.937996614358354 86.68620687231464 H 0.0 **** 0.06
26234 H 64.72552618125417 24.699650956658076 88.3341346024203 H 0.0 **** 0.06
26235 H 64.8851469512997 23.40386089864225 87.12476328792445 H 0.0 **** 0.06
26236 C 98.10121619995124 43.91592453720034 46.51472346134392 C 0.0 **** -0.24
26237 H 97.0539618768625 43.61331529875861 46.48963424088606 H 0.0 **** 0.06
26238 H 98.71690122756053 43.129708288944244 46.07819931781603 H 0.0 **** 0.06
26239 H 98.40534058579084 44.08504354452265 47.54687529811733 H 0.0 **** 0.06
26240 H 98.22666194809943 44.83564761176518 45.94276956696797 H 0.0 **** 0.06
26241 C 68.13503693674551 5.301889016494158 94.67079754672048 C 0.0 **** -0.24
26242 H 68.48492231667962 4.380264680963535 94.20374583708258 H 0.0 **** 0.06
26243 H 68.28210910191129 6.135207334892641 93.98325352208127 H 0.0 **** 0.06
26244 H 68.69820657598652 5.48171189275584 95.58578006030046 H 0.0 **** 0.06
26245 H 67.07536142664452 5.208388169699504 94.90844601880374 H 0.0 **** 0.06
26246 C 97.71720758368065 25.02600822844299 15.723817411572213 C 0.0 **** -0.24
26247 H 98.00618327589092 25.917315347384402 16.280638794150036 H 0.0 **** 0.06
26248 H 98.11327999883201 24.14118531354862 16.224414625168976 H 0.0 **** 0.06
26249 H 98.12002719680629 25.08297876821908 14.712840123403566 H 0.0 **** 0.06
26250 H 96.63018303223788 24.96169724291323 15.679510642496524 H 0.0 **** 0.06
26251 C 65.60271374253318 24.143721306564544 9.6379660911403 C 0.0 **** -0.24
26252 H 66.43436736877243 24.490311231608885 10.250864141883653 H 0.0 **** 0.06
26253 H 65.07633372872681 23.34313009023353 10.158188357436103 H 0.0 **** 0.06
26254 H 65.98326659107988 23.771073926666034 8.686860492394942 H 0.0 **** 0.06
26255 H 64.91774687457746 24.971873707515343 9.45595954574236 H 0.0 **** 0.06
26256 C 108.85021802008615 58.59079567605763 47.23250905729856 C 0.0 **** -0.24
26257 H 108.13689716729974 59.389981008425856 47.43277270445847 H 0.0 **** 0.06
26258 H 109.0159974618683 58.51182992328891 46.158133903787046 H 0.0 **** 0.06
26259 H 108.4537610318352 57.64761364629887 47.61040982295617 H 0.0 **** 0.06
26260 H 109.79319746106373 58.81336123005226 47.731328370639034 H 0.0 **** 0.06
26261 C 66.73716538895803 13.172316118120957 43.74300358293513 C 0.0 **** -0.24
26262 H 66.63613883489543 13.854203575009421 44.587299452938225 H 0.0 **** 0.06
26263 H 65.74871540195102 12.927597947575801 43.35338317129046 H 0.0 **** 0.06
26264 H 67.23489620789374 12.259764877541876 44.07072853287704 H 0.0 **** 0.06
26265 H 67.32858795825817 13.648418411817723 42.961216966154836 H 0.0 **** 0.06
26266 C 33.845879510367354 75.3918976990976 24.11923019775225 C 0.0 **** -0.24
26267 H 34.42784127358519 74.54209798661867 23.763127236845733 H 0.0 **** 0.06
26268 H 33.40772322161729 75.91470561270654 23.268392724466455 H 0.0 **** 0.06
26269 H 34.49594190115624 76.07235013879958 24.668775215361695 H 0.0 **** 0.06
26270 H 33.05063839060176 75.03745143226112 24.776247614858562 H 0.0 **** 0.06
26271 C 65.14870306612184 51.684114726877986 41.19125839241937 C 0.0 **** -0.24
26272 H 64.6142311524429 52.24518135606522 40.42454826986361 H 0.0 **** 0.06
26273 H 64.4361232169247 51.28895083927421 41.91551792557328 H 0.0 **** 0.06
26274 H 65.85452232531199 52.34212616700451 41.69732208401851 H 0.0 **** 0.06
26275 H 65.6899094869301 50.85942205353298 40.72701813220266 H 0.0 **** 0.06
26276 C 105.80729979492716 33.10486643355284 27.10662923877524 C 0.0 **** -0.24
26277 H 105.70853235441703 34.081289072408254 27.580701175577957 H 0.0 **** 0.06
26278 H 106.86159879020389 32.892510138534675 26.929612812775332 H 0.0 **** 0.06
26279 H 105.2719953373855 33.10637917338279 26.157323588219782 H 0.0 **** 0.06
26280 H 105.38774719210676 32.339539969888946 27.760096487347596 H 0.0 **** 0.06
26281 C 51.87080553104881 102.04741024017815 76.91684214361587 C 0.0 **** -0.24
26282 H 52.17378421342765 101.00371437279765 76.99573574178748 H 0.0 **** 0.06
26283 H 51.83945392576087 102.33822370065633 75.86655693041934 H 0.0 **** 0.06
26284 H 52.58662274400735 102.67479993969698 77.44646954317099 H 0.0 **** 0.06
26285 H 50.88088307946972 102.17278522516406 77.35691953740388 H 0.0 **** 0.06
26286 C 18.157956334684002 9.229225514872752 58.631298663593775 C 0.0 **** -0.24
26287 H 17.608581061558198 8.737943432826114 57.8275541919137 H 0.0 **** 0.06
26288 H 18.149341050149985 10.307257652024362 58.46970073231133 H 0.0 **** 0.06
26289 H 19.18743728668659 8.870918844833398 58.638558052387815 H 0.0 **** 0.06
26290 H 17.686283975005153 8.999970972232603 59.58617083115029 H 0.0 **** 0.06
26291 C 2.0265352650956032 82.84108266638458 99.69316020906092 C 0.0 **** -0.24
26292 H 3.051466484371673 82.61170976093149 99.39990859039375 H 0.0 **** 0.06
26293 H 1.6230079570818283 83.60719610551214 99.0314213823219 H 0.0 **** 0.06
26294 H 2.0150671415648063 83.20541375927519 100.72030124825528 H 0.0 **** 0.06
26295 H 1.418189537639301 81.93933737858418 99.62000059804956 H 0.0 **** 0.06
26296 C 15.901382763026838 23.29064458102826 88.2705716145311 C 0.0 **** -0.24
26297 H 15.900079525585845 23.965651423224656 87.41400373939905 H 0.0 **** 0.06
26298 H 16.00820445555717 22.26315246355884 87.92282103861609 H 0.0 **** 0.06
26299 H 14.963989862759881 23.395172781615955 88.81509037799384 H 0.0 **** 0.06
26300 H 16.733860620183762 23.541529385117556 88.92812072693323 H 0.0 **** 0.06
26301 C 25.72303388711228 58.46286508293381 74.63514639491518 C 0.0 **** -0.24
26302 H 25.466798257731398 58.8042191839593 75.63813646136146 H 0.0 **** 0.06
26303 H 24.866753643757875 58.601378052781605 73.97495649781706 H 0.0 **** 0.06
26304 H 25.989522427939306 57.406403043429385 74.66837610700003 H 0.0 **** 0.06
26305 H 26.568705025520302 59.03882330564377 74.26032803907822 H 0.0 **** 0.06
26306 C 8.026932116578124 55.992389906139415 3.4817837999827645 C 0.0 **** -0.24
26307 H 9.047582650235725 55.66933294704139 3.687759775945466 H 0.0 **** 0.06
26308 H 7.472718910541786 55.173647959934705 3.022416016432885 H 0.0 **** 0.06
26309 H 8.047075839844211 56.844518960020764 2.8015788614694372 H 0.0 **** 0.06
26310 H 7.542819759983331 56.28257654730395 4.413756050049557 H 0.0 **** 0.06
26311 C 84.10977484696457 94.55968595453777 80.04611302204455 C 0.0 **** -0.24
26312 H 84.65757385658438 95.02987630402731 79.23009181490514 H 0.0 **** 0.06
26313 H 83.93132844386375 93.5110394119404 79.8070863919225 H 0.0 **** 0.06
26314 H 83.15538647010271 95.06954827316505 80.18367655197372 H 0.0 **** 0.06
26315 H 84.69402611073289 94.62932129722617 80.9641450581914 H 0.0 **** 0.06
26316 C 92.66648885917797 5.625946198987037 80.45548222183655 C 0.0 **** -0.24
26317 H 93.06184447454157 4.613648107799037 80.53108530420113 H 0.0 **** 0.06
26318 H 93.16575394930484 6.266129948529056 81.1833637865482 H 0.0 **** 0.06
26319 H 91.59525958967691 5.61370346198369 80.65495483013203 H 0.0 **** 0.06
26320 H 92.84424762770382 6.010916121902284 79.45070789874543 H 0.0 **** 0.06
26321 C 54.944607187790155 12.661294989276797 87.31852093114213 C 0.0 **** -0.24
26322 H 55.26738208901821 13.105370082042988 86.37694137706762 H 0.0 **** 0.06
26323 H 54.86548618038364 11.580124653874666 87.20270214963696 H 0.0 **** 0.06
26324 H 53.973258265021286 13.069280732445133 87.59747841086494 H 0.0 **** 0.06
26325 H 55.67209689167768 12.891645069043385 88.09631455011117 H 0.0 **** 0.06
26326 C 53.4835137629434 59.20282241557857 86.19335479538094 C 0.0 **** -0.24
26327 H 52.85538409420718 59.515432267793415 87.02756435748321 H 0.0 **** 0.06
26328 H 52.94991229448476 58.46651035946621 85.59211737647317 H 0.0 **** 0.06
26329 H 54.403092828909564 58.76008559594436 86.5770237695067 H 0.0 **** 0.06
26330 H 53.72658419688537 60.068370354042145 85.57731591620004 H 0.0 **** 0.06
26331 C 13.950892932557153 86.19075149104108 64.0259447048386 C 0.0 **** -0.24
26332 H 14.100066232749015 85.11772604597374 63.898068915785494 H 0.0 **** 0.06
26333 H 14.890931375884293 86.65318795468173 64.32853467052777 H 0.0 **** 0.06
26334 H 13.19693395722372 86.36364784143001 64.79298383387976 H 0.0 **** 0.06
26335 H 13.618851322618596 86.62594099351992 63.08354041956789 H 0.0 **** 0.06
26336 C 36.51946149323132 89.797342508644 94.53276685363042 C 0.0 **** -0.24
26337 H 36.97781377904777 90.6064996664619 95.10138910840877 H 0.0 **** 0.06
26338 H 37.095086957062314 89.623709553017 93.62230958193885 H 0.0 **** 0.06
26339 H 35.49827084128633 90.0718858679096 94.26991910288609 H 0.0 **** 0.06
26340 H 36.50951900139475 88.89009311301683 95.13500679367519 H 0.0 **** 0.06
26341 C 42.88202902627083 75.85758524965965 76.50031592128721 C 0.0 **** -0.24
26342 H 42.46307195163786 76.39538019266166 75.6489734286859 H 0.0 **** 0.06
26343 H 43.587683704748315 75.1072770408087 76.14370204725827 H 0.0 **** 0.06
26344 H 42.07798391920301 75.36819407272634 77.0514204690235 H 0.0 **** 0.06
26345 H 43.39676172628654 76.55972765125728 77.15571629596897 H 0.0 **** 0.06
26346 C 49.37980463377757 70.16113812516636 20.92387835141841 C 0.0 **** -0.24
26347 H 49.42269056216763 70.77274269455847 21.824540874370513 H 0.0 **** 0.06
26348 H 48.51631498575218 69.49755938727179 20.975514630101983 H 0.0 **** 0.06
26349 H 50.29094840677171 69.56637263875518 20.845542266802568 H 0.0 **** 0.06
26350 H 49.291535898084334 70.80703273576864 20.05027250484511 H 0.0 **** 0.06
26351 C 48.79907707312532 76.83016911321991 79.03711800953465 C 0.0 **** -0.24
26352 H 49.88692143712966 76.89084250196916 79.04300983883269 H 0.0 **** 0.06
26353 H 48.461912145670276 76.447682849805 78.07379436086364 H 0.0 **** 0.06
26354 H 48.378089497687206 77.82195727678697 79.20282287572178 H 0.0 **** 0.06
26355 H 48.469595991089705 76.1581193927772 79.83013051563745 H 0.0 **** 0.06
26356 C 81.689370751214 81.07369609639477 2.69608476175452 C 0.0 **** -0.24
26357 H 82.64506668658444 81.08254285225178 2.173448829725757 H 0.0 **** 0.06
26358 H 81.76246273796588 80.43411597130404 3.576018422889618 H 0.0 **** 0.06
26359 H 80.91597463107004 80.68864655992448 2.0304386364125833 H 0.0 **** 0.06
26360 H 81.43292093884457 82.08774048991535 3.0030698789493613 H 0.0 **** 0.06
26361 C 47.725496770701454 111.79129152923895 38.02525290347117 C 0.0 **** -0.24
26362 H 48.203486070486406 111.98389153137842 37.064457456011894 H 0.0 **** 0.06
26363 H 46.75289022243831 111.32837587453619 37.860817680009774 H 0.0 **** 0.06
26364 H 47.59608444145144 112.73099497200604 38.561691387750614 H 0.0 **** 0.06
26365 H 48.352404026539375 111.12123364292611 38.613525041637416 H 0.0 **** 0.06
26366 C 3.479943430411936 106.9327874972127 29.675889155423306 C 0.0 **** -0.24
26367 H 3.2802436207965684 107.44158354860983 30.61919821464835 H 0.0 **** 0.06
26368 H 3.556949518844675 105.85967642054953 29.8519007756492 H 0.0 **** 0.06
26369 H 4.415898012538577 107.3008979547142 29.255687894113862 H 0.0 **** 0.06
26370 H 2.6656891925305786 107.12883600113287 28.97776420185346 H 0.0 **** 0.06
26371 C 47.45586867106778 86.73402750417125 109.16749353526063 C 0.0 **** -0.24
26372 H 48.27799262144346 87.43332109734058 109.01824535996775 H 0.0 **** 0.06
26373 H 47.65395781393281 85.81635032846475 108.61251537862239 H 0.0 **** 0.06
26374 H 46.52864826883092 87.18217757576116 108.80947780163962 H 0.0 **** 0.06
26375 H 47.362344190141606 86.50476191514736 110.22905269865049 H 0.0 **** 0.06
26376 C 3.585613815163242 41.33366492990518 22.808448971922274 C 0.0 **** -0.24
26377 H 4.446842661965405 40.74217066719365 23.118959510158078 H 0.0 **** 0.06
26378 H 3.7822154956859038 41.775697952603736 21.831011991359446 H 0.0 **** 0.06
26379 H 3.407206345193231 42.125389094247424 23.536119924550263 H 0.0 **** 0.06
26380 H 2.70654342794856 40.691774183555 22.746845879040308 H 0.0 **** 0.06
26381 C 6.073734114810293 7.006671413650935 44.4762930468643 C 0.0 **** -0.24
26382 H 6.6934029783488995 7.238200721674332 45.342488207726234 H 0.0 **** 0.06
26383 H 5.026557682119687 7.182140139086897 44.721143185709224 H 0.0 **** 0.06
26384 H 6.213565459231404 5.961382617342139 44.20012835551023 H 0.0 **** 0.06
26385 H 6.36443684522493 7.644482284435298 43.64219380538276 H 0.0 **** 0.06
26386 C 89.8728648359413 48.3866993977297 41.95848928957045 C 0.0 **** -0.24
26387 H 89.04001669788266 47.97336955642809 42.52654101035431 H 0.0 **** 0.06
26388 H 89.6139619587434 48.411650418678086 40.899439148651275 H 0.0 **** 0.06
26389 H 90.75506252607852 47.76386183596117 42.102770041100854 H 0.0 **** 0.06
26390 H 90.08167713292403 49.3991197547747 42.305169075038805 H 0.0 **** 0.06
26391 C 40.898957877756345 17.8503169663241 102.5729502765908 C 0.0 **** -0.24
26392 H 41.55472889640674 16.97860981720919 102.59512091772064 H 0.0 **** 0.06
26393 H 40.83459829433633 18.28049842995756 103.57242521108094 H 0.0 **** 0.06
26394 H 39.9055913094972 17.54777041742483 102.24181914184268 H 0.0 **** 0.06
26395 H 41.30230057521436 18.590522701922993 101.8827905418365 H 0.0 **** 0.06
26396 C 22.777893447147214 43.93728388035191 13.008547251487244 C 0.0 **** -0.24
26397 H 23.556759425501824 44.28202090527424 12.329228110169254 H 0.0 **** 0.06
26398 H 22.73000173449035 42.84827475026671 12.98249088662294 H 0.0 **** 0.06
26399 H 21.817584361081853 44.35004956588793 12.699627630913085 H 0.0 **** 0.06
26400 H 23.005954534440196 44.26679419038919 14.022215089711153 H 0.0 **** 0.06
26401 C 47.470046612801355 48.68504598609425 15.750485595407191 C 0.0 **** -0.24
26402 H 47.977501596087336 49.210024502886284 16.559957893304716 H 0.0 **** 0.06
26403 H 47.637530664345235 49.21591109994762 14.813425989837445 H 0.0 **** 0.06
26404 H 46.40078460507743 48.644368352463175 15.958931024667269 H 0.0 **** 0.06
26405 H 47.86371464086241 47.67238839138011 15.670758587851768 H 0.0 **** 0.06
26406 C 48.282826556835296 56.61451716881319 5.385732259249153 C 0.0 **** -0.24
26407 H 48.68140545182444 55.85714920667529 4.709961526823861 H 0.0 **** 0.06
26408 H 47.643161377543635 56.13737327696761 6.128090356791972 H 0.0 **** 0.06
26409 H 47.7005816617454 57.339001713594875 4.816143435215849 H 0.0 **** 0.06
26410 H 49.10559912932873 57.122594019702646 5.887361125346331 H 0.0 **** 0.06
26411 C 20.90788568738401 76.6750977899938 35.387581682657995 C 0.0 **** -0.24
26412 H 20.31134811567557 76.65252073198658 34.475914222578815 H 0.0 **** 0.06
26413 H 21.002182954735872 75.66348794482624 35.78361828743832 H 0.0 **** 0.06
26414 H 20.419021847322682 77.31099315066658 36.12553873842191 H 0.0 **** 0.06
26415 H 21.89786646188844 77.07179101565362 35.164167499230246 H 0.0 **** 0.06
26416 C 82.19311029672784 89.22509706387115 99.88886945442187 C 0.0 **** -0.24
26417 H 82.47111750823743 88.62287593872671 100.75378684525097 H 0.0 **** 0.06
26418 H 83.09123340575789 89.49757724413362 99.33321316819732 H 0.0 **** 0.06
26419 H 81.68471380130183 90.12916984853885 100.22423463371521 H 0.0 **** 0.06
26420 H 81.52703968888156 88.65156655893901 99.2455048576459 H 0.0 **** 0.06
26421 C 72.32717403233607 70.95433647872954 66.39877524892742 C 0.0 **** -0.24
26422 H 71.81689398515618 70.7903728681568 65.44991089096223 H 0.0 **** 0.06
26423 H 71.97599152629081 70.22717107270347 67.13088364816355 H 0.0 **** 0.06
26424 H 72.11526078002595 71.96171901325187 66.75559807975714 H 0.0 **** 0.06
26425 H 73.40243967499728 70.83811414905091 66.25715021018803 H 0.0 **** 0.06
26426 C 8.475406196833973 7.320205901557358 42.23708453087457 C 0.0 **** -0.24
26427 H 8.866996255428958 8.090565552615885 42.90125364580976 H 0.0 **** 0.06
26428 H 9.198250584756863 7.1216191593663325 41.4457049170493 H 0.0 **** 0.06
26429 H 7.5390934373508 7.663368590584469 41.796050265474065 H 0.0 **** 0.06
26430 H 8.296609317397412 6.406928363321299 42.80398943061742 H 0.0 **** 0.06
26431 C 40.45867267393773 29.785057017737955 97.93117600356902 C 0.0 **** -0.24
26432 H 41.21163930057327 29.481927970618358 97.20309875676719 H 0.0 **** 0.06
26433 H 40.3006867638631 28.979059422670247 98.6475527904571 H 0.0 **** 0.06
26434 H 39.523025477014755 30.003176976844912 97.4165174918183 H 0.0 **** 0.06
26435 H 40.79990397307725 30.676944790638146 98.45615481920993 H 0.0 **** 0.06
26436 C 2.267000710408018 108.43234420015705 91.22532440163116 C 0.0 **** -0.24
26437 H 2.0186733105109607 108.91688687643179 92.17005311173477 H 0.0 **** 0.06
26438 H 2.950654261622203 107.60389314191744 91.4110744007611 H 0.0 **** 0.06
26439 H 2.7423172966303913 109.15358646408407 90.56044461267308 H 0.0 **** 0.06
26440 H 1.355605505852437 108.05489686783443 90.76091755343927 H 0.0 **** 0.06
26441 C 57.148443447205864 95.21386073765535 23.6988380633951 C 0.0 **** -0.24
26442 H 56.34594536052316 95.91037278929744 23.940188703843546 H 0.0 **** 0.06
26443 H 56.756510923362725 94.40835539640042 23.0784402969513 H 0.0 **** 0.06
26444 H 57.55642559029366 94.79780460304627 24.62065709202389 H 0.0 **** 0.06
26445 H 57.93587318028864 95.73997607342537 23.159049711375502 H 0.0 **** 0.06
26446 C 64.96701016307645 41.785082410176955 45.746659140756705 C 0.0 **** -0.24
26447 H 65.08982422334003 42.60032469693282 45.03410944279585 H 0.0 **** 0.06
26448 H 65.7833398316086 41.07173445865518 45.62747844084927 H 0.0 **** 0.06
26449 H 64.01615417907317 41.28296303957802 45.562823520375986 H 0.0 **** 0.06
26450 H 64.97790389646934 42.18405384528353 46.76056419782314 H 0.0 **** 0.06
26451 C 100.73535384032917 103.46691995082438 18.397106733992388 C 0.0 **** -0.24
26452 H 100.10672919556467 104.1669948869301 17.84612436381883 H 0.0 **** 0.06
26453 H 100.91132153469454 103.84920083585118 19.402021168248012 H 0.0 **** 0.06
26454 H 101.68782138003786 103.34900105471061 17.87940202374432 H 0.0 **** 0.06
26455 H 100.23385353818279 102.50072391641476 18.458041916711352 H 0.0 **** 0.06
26456 C 106.25386362860095 37.437226984152474 100.58708752506604 C 0.0 **** -0.24
26457 H 106.37251356514541 38.35784718672949 101.15880865160443 H 0.0 **** 0.06
26458 H 105.75824032388641 37.65807572731981 99.64227447231733 H 0.0 **** 0.06
26459 H 105.64951654566823 36.73146830099191 101.15796556658546 H 0.0 **** 0.06
26460 H 107.23357492520147 37.00208292316705 100.39231649155022 H 0.0 **** 0.06
26461 C 97.30051596358089 86.93909076504718 88.64903753838175 C 0.0 **** -0.24
26462 H 97.2671056349285 87.86203912483936 89.2286533682942 H 0.0 **** 0.06
26463 H 98.29979316821291 86.50838378909785 88.70916186637783 H 0.0 **** 0.06
26464 H 97.05976845975192 87.15495627074552 87.60830746368316 H 0.0 **** 0.06
26465 H 96.57532600760501 86.2316747340071 89.05125946406062 H 0.0 **** 0.06
26466 C 109.59448341080463 17.95958901989806 22.669552078140775 C 0.0 **** -0.24
26467 H 108.65749068801962 18.388261669058465 23.02520611347458 H 0.0 **** 0.06
26468 H 110.41636565076085 18.63454356522044 22.90932355301173 H 0.0 **** 0.06
26469 H 109.54243744762798 17.81827882819877 21.589774293032157 H 0.0 **** 0.06
26470 H 109.75943643796215 16.99735125004517 23.154277114553008 H 0.0 **** 0.06
26471 C 45.8722250292507 90.3796793882143 43.077635261755546 C 0.0 **** -0.24
26472 H 45.45338158262252 90.82326590390772 43.9811780596212 H 0.0 **** 0.06
26473 H 46.928552001002096 90.16310797398896 43.236841227446746 H 0.0 **** 0.06
26474 H 45.764617586425835 91.07662858499373 42.246959150488664 H 0.0 **** 0.06
26475 H 45.34166360567917 89.45546885303949 42.84767683706299 H 0.0 **** 0.06
26476 C 78.33125522708315 38.237972773253034 66.55556643237105 C 0.0 **** -0.24
26477 H 77.7711511773407 39.13332236150444 66.82668633520237 H 0.0 **** 0.06
26478 H 79.32438154003057 38.52285484338586 66.20654954366958 H 0.0 **** 0.06
26479 H 77.80572529765885 37.70758222357057 65.76192891721175 H 0.0 **** 0.06
26480 H 78.42340328111362 37.58963561216035 67.42583245101702 H 0.0 **** 0.06
26481 C 33.942573371528 101.1966982019594 22.907825701269644 C 0.0 **** -0.24
26482 H 34.275328105264634 101.61602118513625 21.957693088884724 H 0.0 **** 0.06
26483 H 34.581590096683044 100.3551422823245 23.17722448993598 H 0.0 **** 0.06
26484 H 32.912138913695344 100.85463347138162 22.812159983459622 H 0.0 **** 0.06
26485 H 34.000989266255885 101.96080412968527 23.68201109303746 H 0.0 **** 0.06
26486 C 76.72629406507554 100.17028156052797 69.13140791314643 C 0.0 **** -0.24
26487 H 76.55125147675068 101.23297526343302 68.96766573726276 H 0.0 **** 0.06
26488 H 75.77439337188079 99.6393486665309 69.11767011032845 H 0.0 **** 0.06
26489 H 77.21038397985615 100.02627348683097 70.09696628946949 H 0.0 **** 0.06
26490 H 77.36988415112125 99.78211291229039 68.34125960136353 H 0.0 **** 0.06
26491 C 106.66591277454748 98.13880832454132 22.84313047451724 C 0.0 **** -0.24
26492 H 106.738027091824 97.14532645996294 22.39975282654649 H 0.0 **** 0.06
26493 H 105.9506704466489 98.11888122158706 23.665444110784307 H 0.0 **** 0.06
26494 H 106.33212008771443 98.84977343574559 22.08801632094014 H 0.0 **** 0.06
26495 H 107.64415545219424 98.44020667636349 23.218909316782913 H 0.0 **** 0.06
26496 C 27.535318803135908 80.90316813762468 70.03749426330461 C 0.0 **** -0.24
26497 H 28.264427075372964 81.14688888452423 69.2646315803749 H 0.0 **** 0.06
26498 H 27.984374400638558 81.05299562346721 71.0196359122088 H 0.0 **** 0.06
26499 H 27.229008768712276 79.8622888185397 69.93190158933118 H 0.0 **** 0.06
26500 H 26.6653653390635 81.55044468167785 69.93263072965772 H 0.0 **** 0.06
26501 C 22.31159276723173 85.92935009805271 72.30625439446868 C 0.0 **** -0.24
26502 H 21.465664123968338 86.61294137728379 72.2309409868401 H 0.0 **** 0.06
26503 H 22.0861357454001 85.01256201886696 71.76083512528521 H 0.0 **** 0.06
26504 H 22.49561560039217 85.69296917724844 73.35418666112855 H 0.0 **** 0.06
26505 H 23.197371493278922 86.39847005995969 71.87852448816619 H 0.0 **** 0.06
26506 C 27.991047882393246 52.01592344885488 91.35495183800356 C 0.0 **** -0.24
26507 H 27.47315779648315 52.83947649010881 90.86303044611327 H 0.0 **** 0.06
26508 H 27.597409989269096 51.89037711124567 92.36411623191265 H 0.0 **** 0.06
26509 H 29.05722057418987 52.234882893488745 91.4055472225316 H 0.0 **** 0.06
26510 H 27.835123611454918 51.09811380518395 90.7879205552722 H 0.0 **** 0.06
26511 C 62.71223537315359 103.1430030017853 7.968057688931765 C 0.0 **** -0.24
26512 H 61.80922833747604 103.39696930455474 8.523661711079441 H 0.0 **** 0.06
26513 H 63.58699278208974 103.48315031598437 8.5233519668447 H 0.0 **** 0.06
26514 H 62.68732233262131 103.6306134281547 6.994201063307912 H 0.0 **** 0.06
26515 H 62.76420609774016 102.06300603376923 7.834113961814509 H 0.0 **** 0.06
26516 C 76.29680279179757 90.89304578814486 73.438856217423 C 0.0 **** -0.24
26517 H 75.58423608337944 91.58634276104837 72.99414926462788 H 0.0 **** 0.06
26518 H 76.37797205757596 91.09089516482425 74.50840175292555 H 0.0 **** 0.06
26519 H 77.2726657170295 91.02451825500248 72.96926485766684 H 0.0 **** 0.06
26520 H 75.95372701601809 89.87019921671288 73.28373921000608 H 0.0 **** 0.06
26521 C 27.94539016582101 78.56324066007204 15.756829507954478 C 0.0 **** -0.24
26522 H 28.77204815414774 78.33273732993501 16.429310890762252 H 0.0 **** 0.06
26523 H 28.27914717656165 78.46387151203015 14.723841399145272 H 0.0 **** 0.06
26524 H 27.606999346449697 79.58383413305569 15.933657009793961 H 0.0 **** 0.06
26525 H 27.12360987848271 77.8708689919564 15.942302090552829 H 0.0 **** 0.06
26526 C 71.59238599175032 82.73249764782577 104.16442398582933 C 0.0 **** -0.24
26527 H 71.96211413903211 82.16187953507557 105.01648470435907 H 0.0 **** 0.06
26528 H 70.50686787087764 82.81184001165329 104.22287555493386 H 0.0 **** 0.06
26529 H 71.87033101750134 82.22449299365437 103.23955893032365 H 0.0 **** 0.06
26530 H 72.03077720443497 83.72952445508668 104.1768732277481 H 0.0 **** 0.06
26531 C 61.20875819312682 94.43852950458972 106.38307718732348 C 0.0 **** -0.24
26532 H 60.57415782367658 94.10036679625591 107.20226748625564 H 0.0 **** 0.06
26533 H 61.45066787688352 93.59302337051207 105.73898986391424 H 0.0 **** 0.06
26534 H 62.12813751246778 94.86230461557312 106.78710900687645 H 0.0 **** 0.06
26535 H 60.6826257718099 95.19786949117108 105.80511887341433 H 0.0 **** 0.06
26536 C 96.0987847030471 18.42764045504619 26.96850022150653 C 0.0 **** -0.24
26537 H 96.25370699186158 18.34891075757145 25.89290594291583 H 0.0 **** 0.06
26538 H 95.59908610934053 19.369710013794162 27.194983495767303 H 0.0 **** 0.06
26539 H 97.06340244436933 18.39695443803885 27.477054527379096 H 0.0 **** 0.06
26540 H 95.48164380216917 17.596513463162715 27.308443408129676 H 0.0 **** 0.06
26541 C 57.47475289279105 53.4331890057179 50.010521428672774 C 0.0 **** -0.24
26542 H 57.736512463906244 53.31806263645208 48.95839535639169 H 0.0 **** 0.06
26543 H 56.58533968898244 52.843030914407116 50.230100432528985 H 0.0 **** 0.06
26544 H 57.27688085509604 54.48348531698778 50.22282466030035 H 0.0 **** 0.06
26545 H 58.30303708910126 53.08714042170365 50.630202922804614 H 0.0 **** 0.06
26546 C 85.44832474267815 39.007695335415065 71.57126596494703 C 0.0 **** -0.24
26547 H 84.79258054637162 39.73724434740416 71.09532666720355 H 0.0 **** 0.06
26548 H 84.92810684717526 38.054081106003764 71.65676209219549 H 0.0 **** 0.06
26549 H 85.72495697446129 39.36241847941204 72.56396051605049 H 0.0 **** 0.06
26550 H 86.34698451345062 38.88063920569448 70.96825377296727 H 0.0 **** 0.06
26551 C 80.22594501944536 50.14528360089173 106.54131093733189 C 0.0 **** -0.24
26552 H 81.29219629860597 50.359148279229515 106.47602364829838 H 0.0 **** 0.06
26553 H 80.01686579565603 49.61999689520195 107.47365486006179 H 0.0 **** 0.06
26554 H 79.92807745527443 49.52034357509373 105.69860793923618 H 0.0 **** 0.06
26555 H 79.66570787267489 51.0794079744781 106.51660618337428 H 0.0 **** 0.06
26556 C 21.293295583421468 101.63727129444399 14.3402215724401 C 0.0 **** -0.24
26557 H 20.546578128551715 100.85255470819072 14.221065032174948 H 0.0 **** 0.06
26558 H 21.515844049530244 102.07652985094921 13.367241844612565 H 0.0 **** 0.06
26559 H 22.202816412201884 101.21129386441956 14.762757287909665 H 0.0 **** 0.06
26560 H 20.90743485620979 102.40699487293057 15.008145570074191 H 0.0 **** 0.06
26561 C 85.80320283816135 82.1397712659699 1.1572366842474535 C 0.0 **** -0.24
26562 H 85.63360128621272 81.1103374748078 1.4723204102552314 H 0.0 **** 0.06
26563 H 84.95107823405627 82.75399858543827 1.449867682422762 H 0.0 **** 0.06
26564 H 85.92020765516946 82.17312161283334 0.07426023452598063 H 0.0 **** 0.06
26565 H 86.70680857268033 82.52100256166125 1.6318941511203038 H 0.0 **** 0.06
26566 C 13.594743379600686 108.73100152379016 73.22376043533455 C 0.0 **** -0.24
26567 H 14.164285747148554 109.62681128862096 72.97772241795298 H 0.0 **** 0.06
26568 H 13.189991728710297 108.29550197368823 72.3098995803216 H 0.0 **** 0.06
26569 H 12.777223411985034 108.99371044171066 73.8946989446485 H 0.0 **** 0.06
26570 H 14.248832183819346 108.00810893706881 73.71308919291442 H 0.0 **** 0.06
26571 C 49.280803139100755 96.50908200550379 100.4038096833346 C 0.0 **** -0.24
26572 H 49.61863031798973 96.15296941304484 99.43077423284211 H 0.0 **** 0.06
26573 H 49.17712361507196 97.59393133899948 100.37644389659005 H 0.0 **** 0.06
26574 H 50.010558285653275 96.23172407199002 101.16502676075083 H 0.0 **** 0.06
26575 H 48.31878743164356 96.05690681298904 100.64209666370493 H 0.0 **** 0.06
26576 C 10.464980566028544 48.49589085399566 57.27920494277802 C 0.0 **** -0.24
26577 H 11.400363058689916 48.03264547942581 56.96482981630268 H 0.0 **** 0.06
26578 H 10.646747728283735 49.53650033481796 57.54613366603101 H 0.0 **** 0.06
26579 H 10.06834280923374 47.96232928621589 58.14276670252019 H 0.0 **** 0.06
26580 H 9.744991217907156 48.45068930047353 56.46142525996686 H 0.0 **** 0.06
26581 C 88.35584276114798 9.221444504850922 2.839155425684794 C 0.0 **** -0.24
26582 H 87.27363625302249 9.31553704157222 2.934675671357752 H 0.0 **** 0.06
26583 H 88.7888072939202 10.201944825904235 2.6435201340946435 H 0.0 **** 0.06
26584 H 88.59035503163355 8.54865181619224 2.013550526854857 H 0.0 **** 0.06
26585 H 88.76809851310435 8.818767981680969 3.7638208495201013 H 0.0 **** 0.06
26586 C 30.331838937679493 48.57123670384459 18.801194636297822 C 0.0 **** -0.24
26587 H 30.796690635696308 47.66473795581254 19.189676739923385 H 0.0 **** 0.06
26588 H 31.051154299475883 49.112855876890706 18.18708840814395 H 0.0 **** 0.06
26589 H 30.01486488218805 49.201928460729434 19.632290175051054 H 0.0 **** 0.06
26590 H 29.46526109422817 48.30437889013462 18.196959507391938 H 0.0 **** 0.06
26591 C 26.747704972035507 96.56094535880669 95.11422670894066 C 0.0 **** -0.24
26592 H 25.80243142009772 96.4354901145679 95.64250627321715 H 0.0 **** 0.06
26593 H 27.104664404802577 95.58772290511334 94.7741303544241 H 0.0 **** 0.06
26594 H 27.482619694158217 97.00370759672421 95.78564556161223 H 0.0 **** 0.06
26595 H 26.60041612337389 97.21451126055325 94.2547036030243 H 0.0 **** 0.06
26596 C 64.04130144666516 48.8662617498772 19.791429799540452 C 0.0 **** -0.24
26597 H 63.86102237745527 49.721597589388296 19.139404866830915 H 0.0 **** 0.06
26598 H 63.307439827216086 48.08841086694969 19.580566063452096 H 0.0 **** 0.06
26599 H 63.95325534912885 49.17819736982915 20.83202502901858 H 0.0 **** 0.06
26600 H 65.04396236195501 48.4788114720464 19.61151108264275 H 0.0 **** 0.06
26601 C 101.85123753264884 59.450089684280236 90.9858902407943 C 0.0 **** -0.24
26602 H 102.67620597692519 59.86357837482395 91.56432471996408 H 0.0 **** 0.06
26603 H 101.7220665460492 60.02968150793664 90.07161534394317 H 0.0 **** 0.06
26604 H 100.93534063619393 59.4935529912055 91.57553863173757 H 0.0 **** 0.06
26605 H 102.07014694034564 58.412789954760974 90.73197027658466 H 0.0 **** 0.06
26606 C 22.749872767855322 94.26118683225792 78.39640207881368 C 0.0 **** -0.24
26607 H 22.645333747115657 95.34578087792175 78.38437294362419 H 0.0 **** 0.06
26608 H 23.765907540824344 93.9974387624315 78.69056989442532 H 0.0 **** 0.06
26609 H 22.545436708472238 93.86591984959529 77.40138082303429 H 0.0 **** 0.06
26610 H 22.04235453295412 93.83572589699793 79.10795201957771 H 0.0 **** 0.06
26611 C 82.74145485135216 95.53558407416557 62.56032939862098 C 0.0 **** -0.24
26612 H 82.59418449166247 95.25730223887476 61.51634227988126 H 0.0 **** 0.06
26613 H 83.17400946740236 94.69457918600386 63.10221284350081 H 0.0 **** 0.06
26614 H 81.78253733232776 95.8000915688701 63.00408864710789 H 0.0 **** 0.06
26615 H 83.41643017606788 96.38958645297683 62.61630827386517 H 0.0 **** 0.06
26616 C 33.34000306929957 68.49637321705654 23.815439370389782 C 0.0 **** -0.24
26617 H 34.238327212411434 68.6849385614533 24.402765685192463 H 0.0 **** 0.06
26618 H 32.83266951627505 67.61208073277038 24.201099658017284 H 0.0 **** 0.06
26619 H 33.61547237780789 68.33234691287254 22.77325298166832 H 0.0 **** 0.06
26620 H 32.6747452543207 69.35736617070171 23.884776201091626 H 0.0 **** 0.06
26621 C 32.076216698191445 28.794726339164505 6.866716293436369 C 0.0 **** -0.24
26622 H 32.52715086249542 27.811458068341004 7.000832956053337 H 0.0 **** 0.06
26623 H 31.89267020789734 29.245689188100968 7.842511686247496 H 0.0 **** 0.06
26624 H 31.133037574663803 28.691292790561036 6.330588500946488 H 0.0 **** 0.06
26625 H 32.752010114035144 29.429607803334974 6.293446555297232 H 0.0 **** 0.06
26626 C 107.25297936076272 107.49908619579332 112.31621919025805 C 0.0 **** -0.24
26627 H 108.2990957661101 107.37699315213978 112.0370165849305 H 0.0 **** 0.06
26628 H 106.71517638722699 107.98729087886146 111.50383965661739 H 0.0 **** 0.06
26629 H 107.18610678788444 108.11106251547864 113.21534009052785 H 0.0 **** 0.06
26630 H 106.81153850182923 106.52099823669312 112.5086804289564 H 0.0 **** 0.06
26631 C 33.44186688258182 84.20565989723153 102.71815841417035 C 0.0 **** -0.24
26632 H 33.2113890421835 84.4149411270275 103.76260788834833 H 0.0 **** 0.06
26633 H 34.40436948022594 83.69896471702933 102.65330402860641 H 0.0 **** 0.06
26634 H 33.485753687045104 85.14141203540805 102.161596441363 H 0.0 **** 0.06
26635 H 32.66496076159612 83.56820011849922 102.29561454559615 H 0.0 **** 0.06
26636 C 40.54156968860471 71.49766572384732 50.48632741582083 C 0.0 **** -0.24
26637 H 39.60520733553585 71.01140708948304 50.76265250991444 H 0.0 **** 0.06
26638 H 41.13398811102243 70.8213142003948 49.87098006654196 H 0.0 **** 0.06
26639 H 41.098933563756674 71.75099526158971 51.38875642046093 H 0.0 **** 0.06
26640 H 40.326161191633275 72.40757873742291 49.925076182091594 H 0.0 **** 0.06
26641 C 112.31065511616984 81.72114919118502 15.339684034203856 C 0.0 **** -0.24
26642 H 112.75917191727339 80.73411044661208 15.446677095124642 H 0.0 **** 0.06
26643 H 112.46200576361993 82.08030501310228 14.321486854644775 H 0.0 **** 0.06
26644 H 112.77870351026463 82.41111145867472 16.041275879333398 H 0.0 **** 0.06
26645 H 111.24206075218815 81.66012427672217 15.548642167941438 H 0.0 **** 0.06
26646 C 82.02384997083917 102.69303246976736 99.43596158945326 C 0.0 **** -0.24
26647 H 82.4665353610435 103.54290275626215 98.9155160221955 H 0.0 **** 0.06
26648 H 82.00578614956399 102.8939748468186 100.50745647466766 H 0.0 **** 0.06
26649 H 82.61698291681691 101.79956881411763 99.2434795405203 H 0.0 **** 0.06
26650 H 81.00611983468454 102.53882252419797 99.07885937130533 H 0.0 **** 0.06
26651 C 36.134634201208314 52.22793951320723 12.331860800241287 C 0.0 **** -0.24
26652 H 36.72496362912301 53.067160997677504 12.698913688257022 H 0.0 **** 0.06
26653 H 36.03916147796804 52.29840379449608 11.248035550936748 H 0.0 **** 0.06
26654 H 35.14454331360798 52.25297922129398 12.785823765551129 H 0.0 **** 0.06
26655 H 36.630958534809736 51.29339744528279 12.593336740580469 H 0.0 **** 0.06
26656 C 18.593943943594923 66.42728331622286 20.624090120791937 C 0.0 **** -0.24
26657 H 19.488804352006554 66.34855166498875 21.24226778443211 H 0.0 **** 0.06
26658 H 18.828566062605944 66.97994269435546 19.71389590532598 H 0.0 **** 0.06
26659 H 17.815205837414027 66.95159020751686 21.178265774037758 H 0.0 **** 0.06
26660 H 18.24409001674381 65.42894692555541 20.362374549334437 H 0.0 **** 0.06
26661 C 49.56211495725955 70.847319105553 71.27884689787123 C 0.0 **** -0.24
26662 H 48.47469975282581 70.9095574634845 71.33615340955964 H 0.0 **** 0.06
26663 H 49.90348942833401 71.3212565023278 70.35818939280861 H 0.0 **** 0.06
26664 H 49.86656442211313 69.80140663807757 71.28373983531739 H 0.0 **** 0.06
26665 H 50.00060560489953 71.35849639560104 72.13578453231787 H 0.0 **** 0.06
26666 C 78.98385277298274 3.8270861440187502 77.53318285254005 C 0.0 **** -0.24
26667 H 79.30591878857655 3.103609093580502 76.78392798739117 H 0.0 **** 0.06
26668 H 79.75402048354863 3.92435501372006 78.29919259617589 H 0.0 **** 0.06
26669 H 78.05564348018447 3.4859629838082355 77.99211957367532 H 0.0 **** 0.06
26670 H 78.81989740287912 4.793773357945042 77.05672942132821 H 0.0 **** 0.06
26671 C 14.919552913705587 12.082029429554051 102.38325828098658 C 0.0 **** -0.24
26672 H 14.319365741751522 12.362676470869573 101.51861621578081 H 0.0 **** 0.06
26673 H 14.746889019663449 12.791606027335206 103.19209670050105 H 0.0 **** 0.06
26674 H 15.974979556398754 12.091407552949814 102.11034975324543 H 0.0 **** 0.06
26675 H 14.638396923461357 11.081029359221361 102.71095566719714 H 0.0 **** 0.06
26676 C 103.75716356160098 100.87356248507496 25.550226841280164 C 0.0 **** -0.24
26677 H 103.75974791471387 99.78570027169101 25.61723808194114 H 0.0 **** 0.06
26678 H 102.72837446376414 101.23192353171123 25.49814206610631 H 0.0 **** 0.06
26679 H 104.29688865633224 101.18413529106272 24.65602009665497 H 0.0 **** 0.06
26680 H 104.24367229260321 101.29229811037231 26.431734740438458 H 0.0 **** 0.06
26681 C 15.948963502866352 33.09657134315478 2.0130785978808508 C 0.0 **** -0.24
26682 H 16.896949653160497 32.56014762754518 2.0222522388366695 H 0.0 **** 0.06
26683 H 15.166284556480658 32.45988389994119 2.4255712117777932 H 0.0 **** 0.06
26684 H 15.694345960835697 33.36749552719448 0.9886864095441865 H 0.0 **** 0.06
26685 H 16.037831288359296 34.001030597655244 2.6166053012442223 H 0.0 **** 0.06
26686 C 73.96284452448896 16.437369213270586 72.74357557629614 C 0.0 **** -0.24
26687 H 74.08294016322168 17.512228203246366 72.60898150066194 H 0.0 **** 0.06
26688 H 73.78666975502784 16.221510524057862 73.79749961664095 H 0.0 **** 0.06
26689 H 74.86784282047637 15.926747730123736 72.41483683627052 H 0.0 **** 0.06
26690 H 73.1140941480287 16.08971309550344 72.15418823230141 H 0.0 **** 0.06
26691 C 105.00439269318625 96.44249368041065 100.69543823006993 C 0.0 **** -0.24
26692 H 105.82633864125793 95.75487066083582 100.4961198071729 H 0.0 **** 0.06
26693 H 104.26301104007533 95.95001549439826 101.3247687300017 H 0.0 **** 0.06
26694 H 104.5425477318224 96.73848828409788 99.75239001393206 H 0.0 **** 0.06
26695 H 105.38635210264064 97.32658638714719 101.20538573160422 H 0.0 **** 0.06
26696 C 43.16848750676161 84.48260157121888 86.70988613313742 C 0.0 **** -0.24
26697 H 42.38217137427267 83.7311155685963 86.78851297315558 H 0.0 **** 0.06
26698 H 43.94196589001565 84.12696613021012 86.02886040797202 H 0.0 **** 0.06
26699 H 43.60167684406912 84.65788603066608 87.69406888197574 H 0.0 **** 0.06
26700 H 42.74614398096598 85.41095154141385 86.32716745296693 H 0.0 **** 0.06
26701 C 63.07635038843998 33.02770088840781 35.85240072451946 C 0.0 **** -0.24
26702 H 64.01719749904916 33.167699751725706 36.384405805831406 H 0.0 **** 0.06
26703 H 62.6614396255425 33.999751723460164 35.58610274505517 H 0.0 **** 0.06
26704 H 62.373855617207454 32.4946683309265 36.492339568793376 H 0.0 **** 0.06
26705 H 63.25406838235256 32.44787726635378 34.946826179266935 H 0.0 **** 0.06
26706 C 36.313852920745035 86.42223021033561 58.9874467410639 C 0.0 **** -0.24
26707 H 36.405397999632896 86.49053137724775 60.070789142126266 H 0.0 **** 0.06
26708 H 35.529118545789345 85.71013797527473 58.733263805710074 H 0.0 **** 0.06
26709 H 37.26063561269598 86.08752694877472 58.562682461803 H 0.0 **** 0.06
26710 H 36.060952341400366 87.40228120196915 58.58160342046644 H 0.0 **** 0.06
26711 C 0.5150957097754789 34.114921996938136 49.65883734828452 C 0.0 **** -0.24
26712 H 0.1955486993085085 34.74793305767108 48.83108250022127 H 0.0 **** 0.06
26713 H 0.6473084582338169 33.092295472256836 49.304003261111006 H 0.0 **** 0.06
26714 H -0.24033948414017203 34.13279136493969 50.443191627948295 H 0.0 **** 0.06
26715 H 1.4602485838600394 34.486571010640006 50.056515017994 H 0.0 **** 0.06
26716 C 55.65648571185977 8.613753837262323 84.77957829009006 C 0.0 **** -0.24
26717 H 55.80066467110527 8.819832685050642 83.71951401706761 H 0.0 **** 0.06
26718 H 56.62437471576388 8.592416826892617 85.28086166619804 H 0.0 **** 0.06
26719 H 55.16359616140781 7.648039527493381 84.89678417533867 H 0.0 **** 0.06
26720 H 55.03507868260027 9.393921291832072 85.22053237105442 H 0.0 **** 0.06
26721 C 74.78043048125164 76.10837804110895 50.956673914058115 C 0.0 **** -0.24
26722 H 73.93814034730738 75.41957740300404 50.894525852462095 H 0.0 **** 0.06
26723 H 75.5798211796994 75.76522683810222 50.29913668219314 H 0.0 **** 0.06
26724 H 75.14469329992838 76.14598246070767 51.98292575957157 H 0.0 **** 0.06
26725 H 74.45945528264753 77.10406371871557 50.648358457496954 H 0.0 **** 0.06
26726 C 58.06151416759908 107.0145982007964 20.565669184107037 C 0.0 **** -0.24
26727 H 57.47379672934033 106.09730991771158 20.615547807767143 H 0.0 **** 0.06
26728 H 58.520424690794364 107.20459490369257 21.536907508105884 H 0.0 **** 0.06
26729 H 57.41101962056236 107.84875639602996 20.300908171692015 H 0.0 **** 0.06
26730 H 58.84005806401024 106.90674346581096 19.809983940042628 H 0.0 **** 0.06
26731 C 1.5773805065590238 22.65065608164585 58.24033205471633 C 0.0 **** -0.24
26732 H 1.4343461367666919 23.72853972520454 58.317256795677594 H 0.0 **** 0.06
26733 H 1.3626859773799396 22.327401859951266 57.222067688280845 H 0.0 **** 0.06
26734 H 0.9024735891666182 22.14512359021836 58.932006848677275 H 0.0 **** 0.06
26735 H 2.6080913977885842 22.402560342298415 58.49181147527952 H 0.0 **** 0.06
26736 C 12.573716956029216 82.22314436505371 77.47501487616375 C 0.0 **** -0.24
26737 H 13.332539354095147 82.10674038339462 78.24934111141101 H 0.0 **** 0.06
26738 H 12.593781449263048 81.35599945858442 76.81450783916728 H 0.0 **** 0.06
26739 H 12.779324467531993 83.12467918805751 76.89880845107018 H 0.0 **** 0.06
26740 H 11.59080380235855 82.30371440267623 77.93993489982324 H 0.0 **** 0.06
26741 C 21.843808875724164 72.7858357464942 77.79877698375014 C 0.0 **** -0.24
26742 H 21.715422573748043 72.44232133791198 76.77270332486998 H 0.0 **** 0.06
26743 H 22.779164238939245 72.39234709939296 78.19905004444774 H 0.0 **** 0.06
26744 H 21.010613084812434 72.43216990930344 78.40705463995445 H 0.0 **** 0.06
26745 H 21.87092376171043 73.87540464904905 77.81626368890045 H 0.0 **** 0.06
26746 C 109.45883518370806 80.99487699874697 72.66159413105564 C 0.0 **** -0.24
26747 H 110.45492095778653 81.31334273512203 72.35417569349178 H 0.0 **** 0.06
26748 H 109.54384390530865 80.19582602810516 73.39817030622703 H 0.0 **** 0.06
26749 H 108.90917615821894 80.63226191317497 71.79364506586518 H 0.0 **** 0.06
26750 H 108.92761065218461 81.83922899347542 73.10117871980248 H 0.0 **** 0.06
26751 C 32.387568555651725 98.2103212836929 100.0043190490949 C 0.0 **** -0.24
26752 H 32.212048561131915 99.19531794869226 99.57220023290358 H 0.0 **** 0.06
26753 H 33.021505685747314 98.3075539848553 100.8853700561618 H 0.0 **** 0.06
26754 H 32.88111988783454 97.57432465055399 99.26896281141345 H 0.0 **** 0.06
26755 H 31.434673999491743 97.76382094642827 100.28849118813525 H 0.0 **** 0.06
26756 C 50.036439169296216 89.06531195637308 56.964961247545375 C 0.0 **** -0.24
26757 H 49.33628253368056 89.84658584973192 56.671582485296256 H 0.0 **** 0.06
26758 H 50.794867811392805 88.94628851432614 56.1902349160693 H 0.0 **** 0.06
26759 H 49.49864349460859 88.1257870553192 57.09405497437058 H 0.0 **** 0.06
26760 H 50.51641269354815 89.34125779046445 57.90379227188629 H 0.0 **** 0.06
26761 C 105.70388150783191 17.278917038471775 9.066845898366438 C 0.0 **** -0.24
26762 H 105.98561438729558 18.270672197470134 8.71282938891126 H 0.0 **** 0.06
26763 H 106.56812798951358 16.799374010156782 9.528705196669023 H 0.0 **** 0.06
26764 H 105.36149318649012 16.676764151625036 8.225501436259762 H 0.0 **** 0.06
26765 H 104.9024927774027 17.368545564405366 9.800118160811678 H 0.0 **** 0.06
26766 C 91.54928786333463 86.20972987221703 9.919975771844975 C 0.0 **** -0.24
26767 H 91.153002126454 86.74510651893348 9.057791458662933 H 0.0 **** 0.06
26768 H 92.63296421048372 86.32105969429008 9.950579879229906 H 0.0 **** 0.06
26769 H 91.29409599457674 85.15266732870074 9.840721007617404 H 0.0 **** 0.06
26770 H 91.11592206547672 86.61923359587755 10.83278857338017 H 0.0 **** 0.06
26771 C 107.6279572342688 0.20794260086447025 84.66247481566393 C 0.0 **** -0.24
26772 H 106.77057150931441 -0.13574689403134244 85.24177497984772 H 0.0 **** 0.06
26773 H 107.29104655067977 0.8940529189159747 83.88584287364716 H 0.0 **** 0.06
26774 H 108.12052748795797 -0.6487749114243684 84.20179913876274 H 0.0 **** 0.06
26775 H 108.329196457383 0.7193111840450399 85.32091770526529 H 0.0 **** 0.06
26776 C 77.82758250123405 39.38947593407042 59.6187332822704 C 0.0 **** -0.24
26777 H 78.62628212786746 38.68846233421502 59.863550143460884 H 0.0 **** 0.06
26778 H 76.95703964741608 39.17957122874836 60.24074822102676 H 0.0 **** 0.06
26779 H 77.55832055904258 39.27916491866151 58.56837055139141 H 0.0 **** 0.06
26780 H 78.16908925894566 40.40852802910919 59.801950048685 H 0.0 **** 0.06
26781 C 0.42389863018217966 41.79072788400035 1.9629025407591882 C 0.0 **** -0.24
26782 H -0.06555700127961472 42.39653806369179 2.7247099533198025 H 0.0 **** 0.06
26783 H -0.28601631901798896 41.06374064458524 1.5671857684848192 H 0.0 **** 0.06
26784 H 1.2721079309732488 41.267913515516426 2.403668293969247 H 0.0 **** 0.06
26785 H 0.7726835511974457 42.43427182448025 1.155654977651409 H 0.0 **** 0.06
26786 C 27.98542434679362 59.91132150141431 59.88436782155684 C 0.0 **** -0.24
26787 H 27.545658471188233 59.24297155500017 60.625258342917654 H 0.0 **** 0.06
26788 H 27.596838793990756 60.919030979965214 60.02929273109854 H 0.0 **** 0.06
26789 H 27.729287284577964 59.56317277760769 58.88377466978029 H 0.0 **** 0.06
26790 H 29.06881545599998 59.9184693394393 60.00117092289519 H 0.0 **** 0.06
26791 C 23.447935942478495 108.19214985518224 86.51706678638965 C 0.0 **** -0.24
26792 H 22.591840573926575 107.71501000046155 86.99448661289816 H 0.0 **** 0.06
26793 H 23.955318539816588 107.47126878191546 85.87619335730366 H 0.0 **** 0.06
26794 H 24.137365159346615 108.54809218171584 87.28256714491846 H 0.0 **** 0.06
26795 H 23.10515572900104 109.03529519627554 85.91663353057865 H 0.0 **** 0.06
26796 C 92.01687891237913 63.625105126946 5.089780139098075 C 0.0 **** -0.24
26797 H 91.79128341610868 63.743857581032294 4.030366681629824 H 0.0 **** 0.06
26798 H 93.0514808087002 63.30191576805657 5.206029694369903 H 0.0 **** 0.06
26799 H 91.35156453115468 62.87656688725844 5.520202808139105 H 0.0 **** 0.06
26800 H 91.87414021751641 64.57683114235346 5.600930418585854 H 0.0 **** 0.06
26801 C 49.4726808698486 5.613872686201518 88.29274982590746 C 0.0 **** -0.24
26802 H 48.89628039645553 4.745432300929167 88.61118218212297 H 0.0 **** 0.06
26803 H 50.0337759342817 5.3660773327446805 87.39107180884139 H 0.0 **** 0.06
26804 H 50.164713157761234 5.900886995099114 89.083750094106 H 0.0 **** 0.06
26805 H 48.79619952103265 6.4422331526109815 88.08351244173545 H 0.0 **** 0.06
26806 C 2.251415781076261 11.485264615394442 93.71178057511167 C 0.0 **** -0.24
26807 H 1.2804991289463885 11.959444987340447 93.85405917605516 H 0.0 **** 0.06
26808 H 2.9070370316242418 11.742847552552945 94.54333464521625 H 0.0 **** 0.06
26809 H 2.693352243336065 11.836302352353584 92.77870870212774 H 0.0 **** 0.06
26810 H 2.1256945040786235 10.403690660939475 93.66844125912434 H 0.0 **** 0.06
26811 C 61.33259800952015 103.33558773166808 19.80367444037215 C 0.0 **** -0.24
26812 H 61.263283569584324 103.94367032373944 20.706202288896066 H 0.0 **** 0.06
26813 H 61.87120676565396 102.41482583700423 20.027027329398322 H 0.0 **** 0.06
26814 H 61.86626044696228 103.89076559403443 19.032253456707124 H 0.0 **** 0.06
26815 H 60.33069008779935 103.09420264021182 19.45112792464606 H 0.0 **** 0.06
26816 C 91.88176907717192 50.439139278573094 29.711800081667093 C 0.0 **** -0.24
26817 H 91.78704300002238 49.37138164173956 29.9092285153763 H 0.0 **** 0.06
26818 H 91.061219625088 50.76417533340671 29.071612930585502 H 0.0 **** 0.06
26819 H 92.83125076702436 50.6332316589133 29.21184596660987 H 0.0 **** 0.06
26820 H 91.84847336197677 50.9873184176997 30.652520725234126 H 0.0 **** 0.06
26821 C 57.831653558423454 78.95687640732862 59.30903103550617 C 0.0 **** -0.24
26822 H 57.70791466392032 78.96976448745633 58.226172332493014 H 0.0 **** 0.06
26823 H 58.286810477145195 79.89291865937489 59.63391334677403 H 0.0 **** 0.06
26824 H 58.475595973047945 78.12287465520069 59.590842534417156 H 0.0 **** 0.06
26825 H 56.85848070351912 78.84153594467426 59.78417359298991 H 0.0 **** 0.06
26826 C 58.72224669465543 79.22287528153737 108.9859341749102 C 0.0 **** -0.24
26827 H 58.025171297407745 79.3179603055737 108.15407778553724 H 0.0 **** 0.06
26828 H 59.470664975525246 78.4660949013483 108.74829581164752 H 0.0 **** 0.06
26829 H 58.178043625793244 78.92764327536821 109.88327998192689 H 0.0 **** 0.06
26830 H 59.21510687989544 80.17980264385918 109.15808312052897 H 0.0 **** 0.06
26831 C 91.7375582155669 16.331978630714033 20.90074721840162 C 0.0 **** -0.24
26832 H 91.94333513169784 16.292357272592668 19.83031296467618 H 0.0 **** 0.06
26833 H 91.62564387494444 15.319157025541102 21.286576085599393 H 0.0 **** 0.06
26834 H 90.81798569793301 16.891465900485173 21.073318326967126 H 0.0 **** 0.06
26835 H 92.56511224844073 16.826221829764705 21.41055838456603 H 0.0 **** 0.06
26836 C 62.88410524606428 66.96402308459835 26.938518287007014 C 0.0 **** -0.24
26837 H 62.97458343035788 66.85906924075238 25.857417102259774 H 0.0 **** 0.06
26838 H 62.040939507077155 67.61477787109828 27.17109979303251 H 0.0 **** 0.06
26839 H 63.80021547614564 67.39943438785625 27.338697600643513 H 0.0 **** 0.06
26840 H 62.721475723970656 65.9839792932938 27.386782921446525 H 0.0 **** 0.06
26841 C 80.3003325551899 64.68214071107616 70.58883032829257 C 0.0 **** -0.24
26842 H 79.53390666848966 64.38288133214303 69.87409222399526 H 0.0 **** 0.06
26843 H 80.38332762392326 63.9248186610601 71.36878388953448 H 0.0 **** 0.06
26844 H 80.02682557774727 65.6372999508352 71.03710496367461 H 0.0 **** 0.06
26845 H 81.25651075431205 64.78201544506197 70.07517122105384 H 0.0 **** 0.06
26846 C 99.4626706805582 80.29875422590894 30.116245453530496 C 0.0 **** -0.24
26847 H 98.4374763343938 80.48040502808959 30.439602772098894 H 0.0 **** 0.06
26848 H 99.71394673917533 79.25048656762911 30.27664691155762 H 0.0 **** 0.06
26849 H 100.14188092216304 80.92838913341637 30.690205965508824 H 0.0 **** 0.06
26850 H 99.55540707253539 80.53675688658646 29.055685132594107 H 0.0 **** 0.06
26851 C 59.48497506275766 8.852874717039583 13.4859547597909 C 0.0 **** -0.24
26852 H 59.4164155767342 9.827358751344718 13.002569978754423 H 0.0 **** 0.06
26853 H 60.41462324804302 8.366369063254638 13.192201733721788 H 0.0 **** 0.06
26854 H 58.63873673059897 8.237076067277314 13.18110052090583 H 0.0 **** 0.06
26855 H 59.4678934531948 8.98269036376621 14.568148142054156 H 0.0 **** 0.06
26856 C 78.52979466614096 24.769576329479833 81.70073258885336 C 0.0 **** -0.24
26857 H 78.52132766878725 25.69577055376442 82.27612202945764 H 0.0 **** 0.06
26858 H 79.53102089998583 24.33821702830579 81.72426186873005 H 0.0 **** 0.06
26859 H 78.24850645180214 24.979608364126534 80.6692909675238 H 0.0 **** 0.06
26860 H 77.82014616195153 24.065975025528076 82.13500962838188 H 0.0 **** 0.06
26861 C 22.032718604383604 45.78817670918778 69.69121001176916 C 0.0 **** -0.24
26862 H 21.603516734628613 45.45343065727997 70.63571477086214 H 0.0 **** 0.06
26863 H 23.098912324036604 45.97276904539032 69.8221489472246 H 0.0 **** 0.06
26864 H 21.54003729699255 46.70696443494714 69.37345126488901 H 0.0 **** 0.06
26865 H 21.887338230060294 45.01761430660923 68.9331548671588 H 0.0 **** 0.06
26866 C 68.79947138375508 101.28170223197196 107.99594220822495 C 0.0 **** -0.24
26867 H 67.93994651418984 101.82076609009496 108.39601172765495 H 0.0 **** 0.06
26868 H 69.62497769889308 101.97697803151814 107.84464033584172 H 0.0 **** 0.06
26869 H 68.52916070958796 100.82453379650403 107.04419721157001 H 0.0 **** 0.06
26870 H 69.10073941493789 100.50574553850234 108.69931276811876 H 0.0 **** 0.06
26871 C 78.50570340090795 62.95108915884032 62.95965889617369 C 0.0 **** -0.24
26872 H 78.6663396908136 64.0143327949718 63.14073180317595 H 0.0 **** 0.06
26873 H 77.9221232354653 62.52916615001541 63.77831119908032 H 0.0 **** 0.06
26874 H 79.46782360994385 62.44372860568822 62.89929098608829 H 0.0 **** 0.06
26875 H 77.96588403752585 62.82034771387475 62.02209818557631 H 0.0 **** 0.06
26876 C 36.765958823219535 96.12749878239865 92.45626044682203 C 0.0 **** -0.24
26877 H 37.350345296367266 96.98295674684422 92.11718446519475 H 0.0 **** 0.06
26878 H 36.52336632230791 96.24988177168677 93.51235453937045 H 0.0 **** 0.06
26879 H 37.34548235513236 95.21472708693068 92.32023595058888 H 0.0 **** 0.06
26880 H 35.84535217008505 96.06330285197097 91.87691977381974 H 0.0 **** 0.06
26881 C 45.447303025065565 43.01689533405943 71.26495353904795 C 0.0 **** -0.24
26882 H 45.31672471137637 44.07192110289684 71.50997892123189 H 0.0 **** 0.06
26883 H 44.477045546335376 42.51871381224558 71.27534950840953 H 0.0 **** 0.06
26884 H 46.10230778591307 42.55256933306606 72.0024645852643 H 0.0 **** 0.06
26885 H 45.89268561482345 42.92631115226594 70.27427032024289 H 0.0 **** 0.06
26886 C 40.99190590234275 78.62353107999348 90.90196177331549 C 0.0 **** -0.24
26887 H 40.54361305882651 78.02517088997425 91.69522466070418 H 0.0 **** 0.06
26888 H 41.17378279872733 79.63454997748573 91.26813938389262 H 0.0 **** 0.06
26889 H 40.3139768932061 78.66227720436282 90.04930745505166 H 0.0 **** 0.06
26890 H 41.935938952147524 78.17331171768066 90.5958809231823 H 0.0 **** 0.06
26891 C 103.58820820313298 52.52335501291973 102.69222752360358 C 0.0 **** -0.24
26892 H 103.52242031724171 52.065780854667516 103.67909438668357 H 0.0 **** 0.06
26893 H 104.357705507687 52.01831850931591 102.10811072554179 H 0.0 **** 0.06
26894 H 103.84336403639696 53.577543407406125 102.79743533907774 H 0.0 **** 0.06
26895 H 102.62721226374691 52.431485336619495 102.1854423665174 H 0.0 **** 0.06
26896 C 78.88200389813795 81.22243444795185 90.89651339681731 C 0.0 **** -0.24
26897 H 78.32644352848757 80.49006546828889 90.31108558547385 H 0.0 **** 0.06
26898 H 78.82038148655948 82.19686248021034 90.41256913928316 H 0.0 **** 0.06
26899 H 79.9261253117815 80.91581844611048 90.96583541405857 H 0.0 **** 0.06
26900 H 78.45531998858422 81.28618018729364 91.897693567121 H 0.0 **** 0.06
26901 C 65.9878289809644 97.41152926628502 19.212984141531336 C 0.0 **** -0.24
26902 H 65.75118189167091 98.15724384148868 18.45365196799304 H 0.0 **** 0.06
26903 H 67.05978452821168 97.21147437788218 19.204163843894463 H 0.0 **** 0.06
26904 H 65.44418760670706 96.49150136209207 18.999522035235458 H 0.0 **** 0.06
26905 H 65.69724178238653 97.78771664925517 20.193874310036364 H 0.0 **** 0.06
26906 C 45.51036446708599 48.42992359516393 40.81493189220516 C 0.0 **** -0.24
26907 H 44.85860786002519 49.27400881838648 41.039933756363666 H 0.0 **** 0.06
26908 H 46.023924167914686 48.11529107713565 41.72408054300698 H 0.0 **** 0.06
26909 H 46.24544759389923 48.72799644791556 40.066680052237096 H 0.0 **** 0.06
26910 H 44.913883900438634 47.60328916613881 40.42882976978491 H 0.0 **** 0.06
26911 C 45.9620497819966 112.64041528381239 31.016185795594225 C 0.0 **** -0.24
26912 H 44.90381233645144 112.85850375308445 31.158492837503132 H 0.0 **** 0.06
26913 H 46.20807060229333 111.69895020129744 31.507993360844495 H 0.0 **** 0.06
26914 H 46.55964840630713 113.44365847422952 31.447694399040955 H 0.0 **** 0.06
26915 H 46.175961733113354 112.56087211919406 29.949932541582996 H 0.0 **** 0.06
26916 C 34.736422020652185 70.22385783902504 84.84790144065124 C 0.0 **** -0.24
26917 H 35.24110023700419 69.69568467007306 85.65761463635911 H 0.0 **** 0.06
26918 H 33.669060729124425 70.28192463905754 85.0627119337685 H 0.0 **** 0.06
26919 H 34.89039989144628 69.68560617562753 83.9128916400733 H 0.0 **** 0.06
26920 H 35.145227861852206 71.22949266337895 84.75964235164483 H 0.0 **** 0.06
26921 C 36.72114456796601 33.82664426161497 61.14810193183121 C 0.0 **** -0.24
26922 H 37.00606144551318 33.659888162593745 62.18595599379711 H 0.0 **** 0.06
26923 H 35.7080346052598 33.45892477428485 60.98561203462293 H 0.0 **** 0.06
26924 H 37.410526054758975 33.29525019066206 60.491908436597555 H 0.0 **** 0.06
26925 H 36.75998352905685 34.8934834876101 60.92790203867668 H 0.0 **** 0.06
26926 C 36.15641832232723 43.099162368053875 78.69749781954275 C 0.0 **** -0.24
26927 H 35.62476937716038 42.8632040421221 77.77636895578212 H 0.0 **** 0.06
26928 H 36.30439791570335 44.17742141209198 78.76607571913951 H 0.0 **** 0.06
26929 H 37.12513628866847 42.59896870069572 78.69521407146141 H 0.0 **** 0.06
26930 H 35.572750508600755 42.75705777441947 79.55202675982366 H 0.0 **** 0.06
26931 C 41.317006928867386 19.613420410602764 17.437440521244184 C 0.0 **** -0.24
26932 H 41.116141932025016 19.017181509334716 18.327239816767246 H 0.0 **** 0.06
26933 H 42.18688688451422 19.2089153133849 16.918432844496408 H 0.0 **** 0.06
26934 H 41.514105726748824 20.645551909939254 17.72730777582632 H 0.0 **** 0.06
26935 H 40.450993018414266 19.58161395100723 16.775103948726837 H 0.0 **** 0.06
26936 C 109.34421305901965 5.9706033095352495 40.317828381286176 C 0.0 **** -0.24
26937 H 109.35771305840137 5.204355584880318 41.09325767714549 H 0.0 **** 0.06
26938 H 108.45281974867164 5.8485372886200935 39.70229263295252 H 0.0 **** 0.06
26939 H 110.23341969436024 5.871103690734913 39.69378039896068 H 0.0 **** 0.06
26940 H 109.33450862743803 6.956624551427922 40.781535489194965 H 0.0 **** 0.06
26941 C 96.5915357825769 4.503092065773089 81.95488228845534 C 0.0 **** -0.24
26942 H 96.93083664338332 5.4665890687348195 81.57491673064231 H 0.0 **** 0.06
26943 H 96.37012684552596 4.590461833306634 83.01922531315836 H 0.0 **** 0.06
26944 H 97.3735981086846 3.7584249454161665 81.80695398242443 H 0.0 **** 0.06
26945 H 95.69169850067101 4.197367405324499 81.42009471522965 H 0.0 **** 0.06
26946 C 98.33308734549578 109.86428711781062 74.04897844360474 C 0.0 **** -0.24
26947 H 99.10407957778273 110.63439652128928 74.03378459916937 H 0.0 **** 0.06
26948 H 98.35585380144931 109.34635062539152 75.0079491860995 H 0.0 **** 0.06
26949 H 98.51685082045944 109.15074166934411 73.24566575540098 H 0.0 **** 0.06
26950 H 97.35532616576836 110.32655920618966 73.90814853459182 H 0.0 **** 0.06
26951 C 78.29047530749298 51.22240049761333 62.23450586545053 C 0.0 **** -0.24
26952 H 79.06428461251696 50.854271371228165 61.561541198309726 H 0.0 **** 0.06
26953 H 78.57116458740231 52.20786063088958 62.60579850619675 H 0.0 **** 0.06
26954 H 78.18038546141344 50.53474342689439 63.07274529556642 H 0.0 **** 0.06
26955 H 77.34458590856039 51.29248527322021 61.69628023697237 H 0.0 **** 0.06
26956 C 46.668866080863886 23.212393251359543 85.6355039457082 C 0.0 **** -0.24
26957 H 46.89217835620699 22.436335858667462 86.36711853031437 H 0.0 **** 0.06
26958 H 47.1683586274116 22.979687171012614 84.69445850115409 H 0.0 **** 0.06
26959 H 47.02396303603926 24.174673830629672 86.00597081081327 H 0.0 **** 0.06
26960 H 45.59178213872666 23.260947764505545 85.47344819571634 H 0.0 **** 0.06
26961 C 46.693588197101235 41.7579877672143 15.2206950858495 C 0.0 **** -0.24
26962 H 47.69431551703292 41.37446008512667 15.024685714675627 H 0.0 **** 0.06
26963 H 46.74324291335586 42.523523564215125 15.99575044247598 H 0.0 **** 0.06
26964 H 46.05083587544226 40.94318914728953 15.55527855985116 H 0.0 **** 0.06
26965 H 46.284587268691155 42.1920605517889 14.308280457752929 H 0.0 **** 0.06
26966 C 93.1037368503693 59.481429888901516 50.32964394656566 C 0.0 **** -0.24
26967 H 93.42540129418455 59.8282795002348 51.31179655134583 H 0.0 **** 0.06
26968 H 92.03436048572127 59.65843792128442 50.21431943793952 H 0.0 **** 0.06
26969 H 93.30775375258605 58.41382288727587 50.237726141542076 H 0.0 **** 0.06
26970 H 93.6488810443982 60.02329018585826 49.55681497871022 H 0.0 **** 0.06
26971 C 92.78926681447689 107.55741932991361 34.589905013846305 C 0.0 **** -0.24
26972 H 92.15011123656473 108.33649871991318 34.173322617009205 H 0.0 **** 0.06
26973 H 92.73647460327962 106.66922326902966 33.95839154217157 H 0.0 **** 0.06
26974 H 92.45105557895201 107.30931522464942 35.59498649860788 H 0.0 **** 0.06
26975 H 93.81815956385998 107.91473188609027 34.629399608179085 H 0.0 **** 0.06
26976 C 10.871216157540488 10.095968427202536 47.409242472139354 C 0.0 **** -0.24
26977 H 11.740225185315182 10.70759914702029 47.65270825410748 H 0.0 **** 0.06
26978 H 11.094756380640774 9.47587010230069 46.54087086283696 H 0.0 **** 0.06
26979 H 10.023265765562655 10.743726907506243 47.18543338471583 H 0.0 **** 0.06
26980 H 10.627347096382692 9.458690747673984 48.259146831604546 H 0.0 **** 0.06
26981 C 3.714845959061279 25.99808389601145 110.90386126152328 C 0.0 **** -0.24
26982 H 4.237085221614876 26.905042231015813 110.60144921681069 H 0.0 **** 0.06
26983 H 3.7808825562537436 25.25805226162746 110.10509167799529 H 0.0 **** 0.06
26984 H 2.66844147953816 26.229121293071096 111.10016385063216 H 0.0 **** 0.06
26985 H 4.174310438994041 25.598475026282568 111.80802581750635 H 0.0 **** 0.06
26986 C 46.19786584499252 49.052795939426005 36.624013368617234 C 0.0 **** -0.24
26987 H 45.842321479526674 48.86411599141516 35.61041752014148 H 0.0 **** 0.06
26988 H 46.24992858544033 48.11166307985485 37.17144628929059 H 0.0 **** 0.06
26989 H 45.509450641734134 49.73050360204252 37.12952227848277 H 0.0 **** 0.06
26990 H 47.18841523051083 49.50521593655424 36.58291081325722 H 0.0 **** 0.06
26991 C 107.01294269957188 8.065371800092635 105.06693736796876 C 0.0 **** -0.24
26992 H 106.33338242474551 7.37730626661471 105.56947694458279 H 0.0 **** 0.06
26993 H 107.54537712302741 8.658068926921374 105.81085947114781 H 0.0 **** 0.06
26994 H 106.44430801383247 8.726275854678079 104.4140938072409 H 0.0 **** 0.06
26995 H 107.73060698003421 7.497321659995123 104.4730876076776 H 0.0 **** 0.06
26996 C 106.45167659591243 47.90054160460721 68.4704204596074 C 0.0 **** -0.24
26997 H 106.3955115030887 48.98890658530189 68.48550457436656 H 0.0 **** 0.06
26998 H 106.7542603901334 47.53908954703655 69.45403620679753 H 0.0 **** 0.06
26999 H 107.18269409219153 47.58548751196878 67.72699552876341 H 0.0 **** 0.06
27000 H 105.47466325317171 47.49024484990065 68.21698440133835 H 0.0 **** 0.06
27001 C 62.583411077907535 104.92931424447437 61.58010082074083 C 0.0 **** -0.24
27002 H 63.34655177354097 105.37099253628358 60.93842331768392 H 0.0 **** 0.06
27003 H 61.597668405625534 105.1246709121742 61.1584558044679 H 0.0 **** 0.06
27004 H 62.64686952852582 105.36734276030865 62.57570987006326 H 0.0 **** 0.06
27005 H 62.744399190711654 103.85258814204329 61.64561570148188 H 0.0 **** 0.06
27006 C 36.353729558971 29.918171462508866 57.8514728672204 C 0.0 **** -0.24
27007 H 35.369774654685955 29.569951537503158 58.1678746704522 H 0.0 **** 0.06
27008 H 36.97761563331497 30.088700398185352 58.728553484183045 H 0.0 **** 0.06
27009 H 36.246275269750384 30.849211803722284 57.29478906244518 H 0.0 **** 0.06
27010 H 36.817541280103086 29.165291801761583 57.21474980994518 H 0.0 **** 0.06
27011 C 1.8142931547606338 100.52911293114039 56.39315998912775 C 0.0 **** -0.24
27012 H 1.1511345945231852 100.52185139986645 57.2582798611881 H 0.0 **** 0.06
27013 H 2.743823927774386 100.01701302920179 56.64475431655302 H 0.0 **** 0.06
27014 H 2.031774336291221 101.55934716250829 56.111344883461925 H 0.0 **** 0.06
27015 H 1.3306446304458746 100.01824860171038 55.56141660819168 H 0.0 **** 0.06
27016 C 5.833720055250643 88.06892229873353 75.38237728756249 C 0.0 **** -0.24
27017 H 5.010797184973544 87.3742728982798 75.55393663710612 H 0.0 **** 0.06
27018 H 6.64170099738819 87.8543372453833 76.08118011442954 H 0.0 **** 0.06
27019 H 5.4833934083475935 89.08998225117699 75.53454897779943 H 0.0 **** 0.06
27020 H 6.195497315867501 87.95666911497838 74.36063623011685 H 0.0 **** 0.06
27021 C 92.34845675599223 59.4214857082875 64.76967519250914 C 0.0 **** -0.24
27022 H 91.6893130339893 58.750921689743286 64.21643839030594 H 0.0 **** 0.06
27023 H 91.9422815958113 59.58642080335661 65.76822895210796 H 0.0 **** 0.06
27024 H 92.42135179568248 60.37284020802637 64.24408292129885 H 0.0 **** 0.06
27025 H 93.33797180015847 58.97278719828304 64.84802651348025 H 0.0 **** 0.06
27026 C 23.779592301308977 55.10831225207036 85.95568702160992 C 0.0 **** -0.24
27027 H 24.082346171828423 55.690884937624844 86.82621880938785 H 0.0 **** 0.06
27028 H 24.648404085109505 54.9229705828956 85.32352566560687 H 0.0 **** 0.06
27029 H 23.0302000218264 55.66320839613323 85.39144074789118 H 0.0 **** 0.06
27030 H 23.358665746566686 54.15751060164936 86.28320262060197 H 0.0 **** 0.06
27031 C 64.8232585976325 77.23756178979829 2.3015946422273146 C 0.0 **** -0.24
27032 H 64.3417603189755 78.20444892672654 2.151134905004824 H 0.0 **** 0.06
27033 H 64.09932677232888 76.5324957722116 2.7114056617640188 H 0.0 **** 0.06
27034 H 65.65499063766748 77.35008724596656 2.9955233881754566 H 0.0 **** 0.06
27035 H 65.19311772051731 76.8640057009446 1.3466902114412562 H 0.0 **** 0.06
27036 C 7.1523750212489965 10.845400700861944 64.23638821768384 C 0.0 **** -0.24
27037 H 7.071494282905185 11.667086330480743 63.525455473303396 H 0.0 **** 0.06
27038 H 7.313286416826269 11.245737408256105 65.23766963096341 H 0.0 **** 0.06
27039 H 7.990497068805052 10.207203121885613 63.96009026460547 H 0.0 **** 0.06
27040 H 6.231064608795325 10.261597330038143 64.2221672311058 H 0.0 **** 0.06
27041 C 90.9874024252729 38.964656583715765 112.2188139822804 C 0.0 **** -0.24
27042 H 91.50488530161101 38.03232395052689 112.44634807490169 H 0.0 **** 0.06
27043 H 91.24209569868643 39.28466101101458 111.20866504856167 H 0.0 **** 0.06
27044 H 91.29104924201806 39.73167433466264 112.93149047861773 H 0.0 **** 0.06
27045 H 89.91049957868407 38.808978060657665 112.29071602809736 H 0.0 **** 0.06
27046 C 67.38880324381421 10.577728095635536 40.692106613382705 C 0.0 **** -0.24
27047 H 67.62341841729224 11.569029448238823 41.08067935167276 H 0.0 **** 0.06
27048 H 68.31403611290199 10.056260736297745 40.445957578205565 H 0.0 **** 0.06
27049 H 66.77597740296636 10.674464389707481 39.79611724644832 H 0.0 **** 0.06
27050 H 66.8424509597466 10.012366023336767 41.44743060322068 H 0.0 **** 0.06
27051 C 33.31494350118723 84.54709557769328 60.617330688234425 C 0.0 **** -0.24
27052 H 34.16959089032657 84.78028596518504 61.25221529224452 H 0.0 **** 0.06
27053 H 33.665380443129514 84.0951149515069 59.68885187142299 H 0.0 **** 0.06
27054 H 32.769040728613675 85.46297000804228 60.39201856692902 H 0.0 **** 0.06
27055 H 32.656885688389245 83.84983772964696 61.13539609875149 H 0.0 **** 0.06
27056 C 57.548498120716374 29.956831392028562 59.98981541676318 C 0.0 **** -0.24
27057 H 58.17436874976016 29.095204664103036 59.75989659781385 H 0.0 **** 0.06
27058 H 58.178885495427835 30.832065721834027 60.14793256857121 H 0.0 **** 0.06
27059 H 56.971774729153424 29.756851393118836 60.89277915382644 H 0.0 **** 0.06
27060 H 56.867760648419846 30.14383323382127 59.15825706372482 H 0.0 **** 0.06
27061 C 7.7365419681828484 53.37274106087913 6.840347311640713 C 0.0 **** -0.24
27062 H 8.301878911850054 53.92166334616799 7.593110770228691 H 0.0 **** 0.06
27063 H 8.425264544310096 52.920171695604175 6.127466865753405 H 0.0 **** 0.06
27064 H 7.068127421669772 54.0563121016991 6.316830342756248 H 0.0 **** 0.06
27065 H 7.150069655735635 52.5913292699892 7.325431148939174 H 0.0 **** 0.06
27066 C 93.44133706215842 67.14462853405084 77.31255221218055 C 0.0 **** -0.24
27067 H 92.74530891948439 67.53829490176508 76.57124994337826 H 0.0 **** 0.06
27068 H 93.7446525337821 67.94565877001631 77.98631377771477 H 0.0 **** 0.06
27069 H 94.31862385349717 66.741573481371 76.80793471170782 H 0.0 **** 0.06
27070 H 92.95403128158407 66.35354189253525 77.8829129923472 H 0.0 **** 0.06
27071 C 38.47188971222175 94.47636190489604 39.82500295505291 C 0.0 **** -0.24
27072 H 39.09683859479662 93.58283830642438 39.81162682661329 H 0.0 **** 0.06
27073 H 38.59190399763452 95.01687590082489 38.885359586631154 H 0.0 **** 0.06
27074 H 38.77279904819585 95.11713719872398 40.65405784163886 H 0.0 **** 0.06
27075 H 37.427733653874384 94.18851197341314 39.94918410219054 H 0.0 **** 0.06
27076 C 109.73370489344984 109.40429211242923 27.02264471725175 C 0.0 **** -0.24
27077 H 108.99430841299761 109.38175886904692 26.222548819437293 H 0.0 **** 0.06
27078 H 110.55408278939024 108.72983274327507 26.77757115735099 H 0.0 **** 0.06
27079 H 109.26864109285572 109.08741448604844 27.95555444459484 H 0.0 **** 0.06
27080 H 110.11682705368838 110.41904328780457 27.13338716516654 H 0.0 **** 0.06
27081 C 83.29850078447421 106.41909026421837 60.66961864696586 C 0.0 **** -0.24
27082 H 82.64228025277353 107.270500475843 60.493628408681786 H 0.0 **** 0.06
27083 H 83.48555329617523 106.31923387408078 61.7393314653182 H 0.0 **** 0.06
27084 H 84.24307884017796 106.57550451425504 60.1483430127181 H 0.0 **** 0.06
27085 H 82.82444312893116 105.5107151663941 60.297245936840795 H 0.0 **** 0.06
27086 C 71.33740252739665 22.613343232807118 7.588493008981345 C 0.0 **** -0.24
27087 H 71.85035066372052 22.275076169021567 6.68779714916376 H 0.0 **** 0.06
27088 H 70.26779584246856 22.42887341674735 7.4882991090784135 H 0.0 **** 0.06
27089 H 71.51039108286471 23.68060508476103 7.72676624634266 H 0.0 **** 0.06
27090 H 71.72215776471228 22.067921079747375 8.450977528083317 H 0.0 **** 0.06
27091 C 56.088982674791936 110.48227065652506 69.71480412233933 C 0.0 **** -0.24
27092 H 55.375151216669195 110.75362453575644 68.93830299539917 H 0.0 **** 0.06
27093 H 57.0702320476116 110.88528281750706 69.46310929628044 H 0.0 **** 0.06
27094 H 56.149903055862666 109.39660919392398 69.78959234145742 H 0.0 **** 0.06
27095 H 55.76091788057306 110.89386543786517 70.6695667342837 H 0.0 **** 0.06
27096 C 18.88068240878991 17.94714336214963 34.63136914834391 C 0.0 **** -0.24
27097 H 19.26378165992071 17.06931359916416 35.152828952115314 H 0.0 **** 0.06
27098 H 19.34356520661609 18.015129488973514 33.646776946876464 H 0.0 **** 0.06
27099 H 19.11625135987302 18.84231585894048 35.206999988575056 H 0.0 **** 0.06
27100 H 17.800039698108435 17.860376933639714 34.520322839634446 H 0.0 **** 0.06
27101 C 59.9072032055709 73.9845480016821 101.60698717263224 C 0.0 **** -0.24
27102 H 59.03223651908744 73.3520559409252 101.7565882225515 H 0.0 **** 0.06
27103 H 59.98244682187313 74.70127661691555 102.42471076657682 H 0.0 **** 0.06
27104 H 59.811205916374185 74.51925169330104 100.66164601118405 H 0.0 **** 0.06
27105 H 60.80318247793486 73.36393182378384 101.58323604856756 H 0.0 **** 0.06
27106 C 36.911530198234956 24.228758367468572 4.346906323881477 C 0.0 **** -0.24
27107 H 36.35384790662505 25.165408021779285 4.321228974683709 H 0.0 **** 0.06
27108 H 36.86867876132496 23.808087819213654 5.352073222409585 H 0.0 **** 0.06
27109 H 37.950536302325844 24.417403688349623 4.075177236797044 H 0.0 **** 0.06
27110 H 36.47291067446062 23.525352057887858 3.6384425473671094 H 0.0 **** 0.06
27111 C 110.77285622414715 1.2302993518079575 69.9889835463108 C 0.0 **** -0.24
27112 H 111.19571289720437 1.872328209953693 70.76090614563202 H 0.0 **** 0.06
27113 H 109.73448282162454 1.0055475647133818 70.23199729698626 H 0.0 **** 0.06
27114 H 111.34314258353567 0.3025517128590707 69.93554932656332 H 0.0 **** 0.06
27115 H 110.8189634505506 1.7404242988718863 69.02642700500849 H 0.0 **** 0.06
27116 C 33.832116252873135 37.36520780376958 80.37400481450533 C 0.0 **** -0.24
27117 H 34.5701171432255 37.65378022513465 79.62494067505571 H 0.0 **** 0.06
27118 H 32.996004502011715 36.86437376150235 79.88551037549223 H 0.0 **** 0.06
27119 H 33.47226117562212 38.255385638439975 80.88994971102636 H 0.0 **** 0.06
27120 H 34.29070713739014 36.688125398706404 81.0946622966552 H 0.0 **** 0.06
27121 C 59.13399151088195 43.85357704924641 39.323163160295934 C 0.0 **** -0.24
27122 H 58.405025934129974 43.52866275549556 38.58042342874805 H 0.0 **** 0.06
27123 H 58.61320774854479 44.29062374343195 40.176392303087255 H 0.0 **** 0.06
27124 H 59.79612189023421 44.59730424337724 38.88127568829033 H 0.0 **** 0.06
27125 H 59.72065364575584 42.99635738129743 39.65567248766297 H 0.0 **** 0.06
27126 C 87.68812941645831 10.885391504254926 69.66197236205551 C 0.0 **** -0.24
27127 H 88.12345132066002 10.909076037584413 68.66295070425514 H 0.0 **** 0.06
27128 H 87.05349464108849 11.760953959770319 69.80081943299339 H 0.0 **** 0.06
27129 H 88.48528240921485 10.892998180285218 70.40634842267855 H 0.0 **** 0.06
27130 H 87.09117777987382 9.981346309820793 69.7783397456507 H 0.0 **** 0.06
27131 C 104.89008816329203 56.62225817107928 5.30093334471394 C 0.0 **** -0.24
27132 H 105.39335599650542 57.228657996112354 4.5472562371442535 H 0.0 **** 0.06
27133 H 104.88894198511514 55.57891194130686 4.985345441689887 H 0.0 **** 0.06
27134 H 103.86369907363496 56.96811695394352 5.4192062102831215 H 0.0 **** 0.06
27135 H 105.41692142632479 56.71426691753537 6.251171495140767 H 0.0 **** 0.06
27136 C 36.59737064506626 22.956846403724853 107.6802053586809 C 0.0 **** -0.24
27137 H 36.256977223138705 22.249227771553933 106.92466479626137 H 0.0 **** 0.06
27138 H 37.08355062254796 23.802450972243406 107.19283036844445 H 0.0 **** 0.06
27139 H 37.305538574372605 22.464802545526766 108.34643983674061 H 0.0 **** 0.06
27140 H 35.74244494199047 23.311052302665388 108.25669963209268 H 0.0 **** 0.06
27141 C 66.21325446880579 30.855370853925137 66.38687690277249 C 0.0 **** -0.24
27142 H 65.22227638028448 31.20078416139654 66.09367830108164 H 0.0 **** 0.06
27143 H 66.16873953526084 29.79518664024704 66.63690543161945 H 0.0 **** 0.06
27144 H 66.55226642122179 31.42016420351078 67.25619608759067 H 0.0 **** 0.06
27145 H 66.90932498007012 31.006531732959303 65.56138452767536 H 0.0 **** 0.06
27146 C 32.36122857694102 54.13792895453402 83.7438045846655 C 0.0 **** -0.24
27147 H 32.51598406179831 53.21039960781292 83.19161213497512 H 0.0 **** 0.06
27148 H 31.367714638283054 54.13171024180207 84.19198843523353 H 0.0 **** 0.06
27149 H 32.447929770638034 54.98417492037627 83.06244781591772 H 0.0 **** 0.06
27150 H 33.11390881315315 54.2228455037894 84.52778165441657 H 0.0 **** 0.06
27151 C 48.07516812850667 71.83734086332686 51.31576501273767 C 0.0 **** -0.24
27152 H 47.93199082786077 71.09289703556408 52.09970066236622 H 0.0 **** 0.06
27153 H 49.02321899475444 71.65360352501989 50.809660706104154 H 0.0 **** 0.06
27154 H 48.08508562792385 72.83327937730351 51.758864913614104 H 0.0 **** 0.06
27155 H 47.25856779445499 71.76803353897239 50.59635842370315 H 0.0 **** 0.06
27156 C 82.81860601794213 103.12737284427394 106.27646801308907 C 0.0 **** -0.24
27157 H 81.88767515145528 102.66395797205865 106.60373975010634 H 0.0 **** 0.06
27158 H 83.26635487798441 102.52508750878707 105.48550988233649 H 0.0 **** 0.06
27159 H 83.50832486808622 103.1905301152006 107.11835902627291 H 0.0 **** 0.06
27160 H 82.61302327041324 104.12905353411693 105.89885190376958 H 0.0 **** 0.06
27161 C 28.409713710151394 95.89964091167943 41.369714082135374 C 0.0 **** -0.24
27162 H 27.589526031245512 96.10848110124536 42.05746069623763 H 0.0 **** 0.06
27163 H 28.97757218993086 95.04248557621281 41.7321929008408 H 0.0 **** 0.06
27164 H 29.06295673882913 96.77000801160753 41.30918279493801 H 0.0 **** 0.06
27165 H 28.00699471700633 95.67776738694295 40.38132754159062 H 0.0 **** 0.06
27166 C 62.55099234714401 2.269218514008564 107.15413378990317 C 0.0 **** -0.24
27167 H 61.53753855752253 1.9222343863055524 107.35441806948029 H 0.0 **** 0.06
27168 H 63.26170449593868 1.4875455712537393 107.42054697460068 H 0.0 **** 0.06
27169 H 62.75271445380111 3.1622698432154994 107.74611346617345 H 0.0 **** 0.06
27170 H 62.650415549288944 2.5054696472453415 106.09443909339171 H 0.0 **** 0.06
27171 C 112.46940127704033 10.891915069768412 72.74341736456677 C 0.0 **** -0.24
27172 H 112.61180861577259 10.293713862139796 71.84371973471931 H 0.0 **** 0.06
27173 H 111.5021199702666 11.391973352683753 72.69765756814263 H 0.0 **** 0.06
27174 H 113.26155545955508 11.638478279717745 72.81181031780696 H 0.0 **** 0.06
27175 H 112.5039566568012 10.244344347274861 73.61952835945391 H 0.0 **** 0.06
27176 C 42.444148849688865 25.960085201699172 71.92608361788777 C 0.0 **** -0.24
27177 H 42.28781183713927 25.03582993205248 72.48153143199224 H 0.0 **** 0.06
27178 H 41.5498185343849 26.581194965047416 71.99620833473483 H 0.0 **** 0.06
27179 H 42.643541943512616 25.726527914645885 70.87966933815557 H 0.0 **** 0.06
27180 H 43.293905596976344 26.497586156194217 72.34717101468107 H 0.0 **** 0.06
27181 C 84.29945002608108 66.00021397222278 90.89194460707444 C 0.0 **** -0.24
27182 H 84.77703833299284 66.97797049258904 90.94659740198654 H 0.0 **** 0.06
27183 H 84.71093448359022 65.44170273102188 90.05067760165457 H 0.0 **** 0.06
27184 H 83.22522591833231 66.12713018072361 90.75398704661336 H 0.0 **** 0.06
27185 H 84.48463124467474 65.45314370116449 91.8161001125776 H 0.0 **** 0.06
27186 C 53.55904082174099 78.81119850845738 99.17178505453185 C 0.0 **** -0.24
27187 H 53.55399308816082 77.93251818846562 98.52740569305644 H 0.0 **** 0.06
27188 H 53.410796520462235 79.70546902798714 98.566808830636 H 0.0 **** 0.06
27189 H 54.51695992905279 78.87672478587007 99.68849070095058 H 0.0 **** 0.06
27190 H 52.75658490097175 78.72968551984832 99.90407560165016 H 0.0 **** 0.06
27191 C 26.112423770789007 8.093241532214297 75.2099118840577 C 0.0 **** -0.24
27192 H 27.00983412840685 8.277125686825 75.8000429019996 H 0.0 **** 0.06
27193 H 26.232661049401486 8.533276667744538 74.21935369112555 H 0.0 **** 0.06
27194 H 25.252288916613054 8.543367387003432 75.70483823937579 H 0.0 **** 0.06
27195 H 25.9545991746607 7.018839409157824 75.11322738402356 H 0.0 **** 0.06
27196 C 33.46500098235367 96.87647042531327 112.56848303325035 C 0.0 **** -0.24
27197 H 32.51444686530306 96.36731491339589 112.7323030917156 H 0.0 **** 0.06
27198 H 33.86844007081868 96.58832895177775 111.59814044409049 H 0.0 **** 0.06
27199 H 34.16711179682187 96.59436676594754 113.35339471561494 H 0.0 **** 0.06
27200 H 33.30791834724022 97.95493770547114 112.59203666340309 H 0.0 **** 0.06
27201 C 79.43922107419439 64.25839976282921 112.34974444346577 C 0.0 **** -0.24
27202 H 79.34875585112133 63.229607921660524 112.00153220036015 H 0.0 **** 0.06
27203 H 79.36067905407245 64.93647030810655 111.49974921078942 H 0.0 **** 0.06
27204 H 80.40550807442924 64.39406656055198 112.83444361113611 H 0.0 **** 0.06
27205 H 78.6414494042325 64.47161216009474 113.06072980624003 H 0.0 **** 0.06
27206 C 48.271581922854466 12.501749404029134 70.82121758057934 C 0.0 **** -0.24
27207 H 48.96529950103684 13.246996604566675 70.43076146560423 H 0.0 **** 0.06
27208 H 48.524819466590316 11.52173223265044 70.41432865904545 H 0.0 **** 0.06
27209 H 47.254815797649826 12.764301106654745 70.53034201025991 H 0.0 **** 0.06
27210 H 48.34318840854877 12.473514684146757 71.90783463352733 H 0.0 **** 0.06
27211 C 1.5906887653237902 81.36305591490404 40.80555614337832 C 0.0 **** -0.24
27212 H 1.3747914424491796 82.2977965921352 40.288439538868374 H 0.0 **** 0.06
27213 H 1.8559942105955685 81.57487589134234 41.841630823212085 H 0.0 **** 0.06
27214 H 2.42128562021 80.85857010059925 40.312989136683754 H 0.0 **** 0.06
27215 H 0.7092634152847239 80.72241139370763 40.78013306999249 H 0.0 **** 0.06
27216 C 42.80449888053488 38.23537748579372 80.75553831389465 C 0.0 **** -0.24
27217 H 42.13150305558494 38.26014670994081 79.89843884598244 H 0.0 **** 0.06
27218 H 42.31463942597878 38.69501434739951 81.61515810046538 H 0.0 **** 0.06
27219 H 43.71399821628086 38.78761490539824 80.51830172458125 H 0.0 **** 0.06
27220 H 43.05667227511748 37.2016621938958 80.99008811949116 H 0.0 **** 0.06
27221 C 40.01583919044509 64.54849193260776 77.69672360547943 C 0.0 **** -0.24
27222 H 40.291901311198444 65.07747675176216 76.78398694345637 H 0.0 **** 0.06
27223 H 39.932388223689486 63.48236956325263 77.4864704211108 H 0.0 **** 0.06
27224 H 39.05843789499926 64.92459180995905 78.05876378331553 H 0.0 **** 0.06
27225 H 40.78074695909521 64.71147162260314 78.4553895832156 H 0.0 **** 0.06
27226 C 86.61901555774472 64.59681725026942 85.61148550392812 C 0.0 **** -0.24
27227 H 85.9958926721927 63.91702629962089 86.19295222287863 H 0.0 **** 0.06
27228 H 86.22577662624698 65.60991996436456 85.6942889457919 H 0.0 **** 0.06
27229 H 86.61410208308246 64.28880891306918 84.56607501364857 H 0.0 **** 0.06
27230 H 87.639055932258 64.57045739742333 85.99322509337233 H 0.0 **** 0.06
27231 C 56.40091369855512 25.308601851254508 94.75533230823038 C 0.0 **** -0.24
27232 H 57.4353353336715 25.327309951325276 94.41238147894228 H 0.0 **** 0.06
27233 H 55.97565393925919 24.321236671650126 94.56992021855785 H 0.0 **** 0.06
27234 H 55.82535104840202 26.059744596005288 94.21644597814341 H 0.0 **** 0.06
27235 H 56.36962661077688 25.52354371187127 95.82400885864004 H 0.0 **** 0.06
27236 C 80.71178306171828 4.489876233817739 45.24495905814106 C 0.0 **** -0.24
27237 H 80.09219758578155 3.6801281447054492 45.628550222653104 H 0.0 **** 0.06
27238 H 80.11353954323556 5.3965408940798625 45.15848803964872 H 0.0 **** 0.06
27239 H 81.10087528014407 4.216072913482975 44.26380696539343 H 0.0 **** 0.06
27240 H 81.54317070590804 4.6663597465788484 45.92764534194427 H 0.0 **** 0.06
27241 C 18.604738694211367 23.18209731339965 69.42808380255596 C 0.0 **** -0.24
27242 H 19.1843687502063 23.63982699772626 68.6273529851116 H 0.0 **** 0.06
27243 H 17.868983904853987 22.499783264471404 69.0013580496572 H 0.0 **** 0.06
27244 H 18.09264456721536 23.959008998621584 69.99618965100868 H 0.0 **** 0.06
27245 H 19.27222748654583 22.62921825913324 70.08970673284486 H 0.0 **** 0.06
27246 C 14.778380957151867 93.15068406847715 76.31238662297307 C 0.0 **** -0.24
27247 H 14.504022496981275 94.18771960101012 76.5020891529536 H 0.0 **** 0.06
27248 H 15.81883197962448 92.99238159870634 76.5954844279394 H 0.0 **** 0.06
27249 H 14.651946430550243 92.93008734131678 75.25183588930628 H 0.0 **** 0.06
27250 H 14.136856428304757 92.49212238608163 76.89805477837695 H 0.0 **** 0.06
27251 C 94.32509321484596 82.85336427389197 85.49143636330581 C 0.0 **** -0.24
27252 H 94.79132372942522 83.81576569340453 85.70363917644497 H 0.0 **** 0.06
27253 H 93.35205899163839 82.80457659494843 85.98121346231886 H 0.0 **** 0.06
27254 H 94.9613791689332 82.05171412910806 85.8664638587041 H 0.0 **** 0.06
27255 H 94.19706396185609 82.74159917937959 84.41535068255894 H 0.0 **** 0.06
27256 C 1.8281074877193078 19.091435995320182 5.980203619318239 C 0.0 **** -0.24
27257 H 2.85432947243919 19.244762346078716 5.646495884603134 H 0.0 **** 0.06
27258 H 1.5977912312898752 18.025747182692115 5.968404876959054 H 0.0 **** 0.06
27259 H 1.147123320275341 19.61741911874944 5.310712218021052 H 0.0 **** 0.06
27260 H 1.7130063095485752 19.47799704164248 6.992212312119237 H 0.0 **** 0.06
27261 C 54.78443544024128 104.37911862692422 22.887630673254563 C 0.0 **** -0.24
27262 H 55.30284420959313 105.29705355184504 23.16694462381855 H 0.0 **** 0.06
27263 H 53.73357177723676 104.60012967305096 22.696758586550345 H 0.0 **** 0.06
27264 H 54.86293161183255 103.65670550869174 23.699952048292914 H 0.0 **** 0.06
27265 H 55.237897357196886 103.96486112206566 21.987626589614877 H 0.0 **** 0.06
27266 C 70.69549522983459 69.30555309833056 7.263832322494046 C 0.0 **** -0.24
27267 H 70.81660508525971 69.05307059659066 6.210996955760669 H 0.0 **** 0.06
27268 H 71.40584287171822 68.73173139670376 7.859570780161993 H 0.0 **** 0.06
27269 H 69.67972332627431 69.06879861478285 7.580791556213468 H 0.0 **** 0.06
27270 H 70.88048743565258 70.37088504487218 7.404580914163249 H 0.0 **** 0.06
27271 C 43.09286851203775 77.40230901902908 52.0690832629094 C 0.0 **** -0.24
27272 H 43.65918006245217 78.20965652487669 51.60421053620607 H 0.0 **** 0.06
27273 H 43.251305247995134 76.47883230700899 51.5111594200165 H 0.0 **** 0.06
27274 H 42.032444077646915 77.6528816480295 52.06487363411725 H 0.0 **** 0.06
27275 H 43.43051356478707 77.26782654494275 53.09714878786713 H 0.0 **** 0.06
27276 C 84.28173842050481 68.23119984092338 73.3275838508969 C 0.0 **** -0.24
27277 H 85.20021894871797 68.76199132968375 73.57926090116752 H 0.0 **** 0.06
27278 H 84.29231975129306 67.968215441788 72.2703347926518 H 0.0 **** 0.06
27279 H 83.42368740110027 68.87148526044692 73.53505067949956 H 0.0 **** 0.06
27280 H 84.21150727499324 67.32410705114785 73.92723591914739 H 0.0 **** 0.06
27281 C 32.568976300250725 90.52258445197288 86.26257674883698 C 0.0 **** -0.24
27282 H 31.55305289617489 90.81846695396709 86.5251916774829 H 0.0 **** 0.06
27283 H 33.195320181958714 90.54500409245139 87.15476290157756 H 0.0 **** 0.06
27284 H 32.968416405254125 91.21289914019454 85.52010952367436 H 0.0 **** 0.06
27285 H 32.55797514271441 89.5128058293204 85.85140459620607 H 0.0 **** 0.06
27286 C 97.56652942586763 9.780846446546729 75.4169797258372 C 0.0 **** -0.24
27287 H 96.59528866769452 10.272226446237159 75.45946958639811 H 0.0 **** 0.06
27288 H 97.66254201812097 9.248591884590413 74.47024053562481 H 0.0 **** 0.06
27289 H 97.65315331963907 9.07443513000005 76.24177828879834 H 0.0 **** 0.06
27290 H 98.35551421287997 10.52914810770423 75.49552301904959 H 0.0 **** 0.06
27291 C 3.5657041084055834 31.099851937397503 10.341222324210165 C 0.0 **** -0.24
27292 H 3.7344422561153863 32.17595979835175 10.316229480379157 H 0.0 **** 0.06
27293 H 2.706649413272487 30.85164004195577 9.71718039689609 H 0.0 **** 0.06
27294 H 3.372724547783264 30.78701053581573 11.367727841628 H 0.0 **** 0.06
27295 H 4.450139836931783 30.584636836990526 9.964573530884497 H 0.0 **** 0.06
27296 C 90.72023155750753 92.69403798905432 66.83017170641327 C 0.0 **** -0.24
27297 H 90.1251081528712 93.36222892616922 66.2069619120648 H 0.0 **** 0.06
27298 H 90.44987302115243 92.83710898140532 67.87636974796857 H 0.0 **** 0.06
27299 H 91.77870888466558 92.91756158279526 66.69422914064509 H 0.0 **** 0.06
27300 H 90.52592288457447 91.66122536438274 66.5412866066564 H 0.0 **** 0.06
27301 C 65.09537137807865 40.93229750877112 85.12202896063064 C 0.0 **** -0.24
27302 H 64.10012593279413 40.74909954662262 84.71711243092193 H 0.0 **** 0.06
27303 H 65.74138828757708 41.322606547675456 84.33408192261118 H 0.0 **** 0.06
27304 H 65.51021345730379 39.999143165604195 85.50348725016633 H 0.0 **** 0.06
27305 H 65.02983933418199 41.65980519958299 85.93147231136783 H 0.0 **** 0.06
27306 C 44.69335013911693 75.67876941500197 19.407581201531443 C 0.0 **** -0.24
27307 H 44.48680879283532 75.44999045455768 20.452588947431366 H 0.0 **** 0.06
27308 H 45.4555047554596 76.45569896992612 19.349355905584787 H 0.0 **** 0.06
27309 H 43.78111176607051 76.02768113738429 18.92446826873197 H 0.0 **** 0.06
27310 H 45.05122062480952 74.77997662094955 18.90323732970414 H 0.0 **** 0.06
27311 C 106.74763688676008 75.61069935357884 13.921828851125042 C 0.0 **** -0.24
27312 H 107.46797339817076 75.8077627306923 13.12793608838345 H 0.0 **** 0.06
27313 H 105.73790800437337 75.76806913414882 13.542765900561704 H 0.0 **** 0.06
27314 H 106.93300904519953 76.28718528606078 14.75552500427112 H 0.0 **** 0.06
27315 H 106.85242562140374 74.57956846080552 14.259254088433664 H 0.0 **** 0.06
27316 C 19.558706187444386 111.13155884599428 25.6536149225729 C 0.0 **** -0.24
27317 H 20.247937573262277 111.94982696132101 25.859883494782196 H 0.0 **** 0.06
27318 H 19.832891929705738 110.2658334564788 26.255726263599456 H 0.0 **** 0.06
27319 H 19.60964888986456 110.87126855196284 24.597130609858652 H 0.0 **** 0.06
27320 H 18.542969540704348 111.44115193741223 25.903362147347707 H 0.0 **** 0.06
27321 C 37.338873535822 88.8701816100913 73.18343350630238 C 0.0 **** -0.24
27322 H 36.68052387167114 89.0562866867264 74.03169583709291 H 0.0 **** 0.06
27323 H 38.35629944806 88.7121602478503 73.5407794675167 H 0.0 **** 0.06
27324 H 37.31745480503534 89.72907798372438 72.51201806434639 H 0.0 **** 0.06
27325 H 36.99901267073176 87.9828762176981 72.6494399530308 H 0.0 **** 0.06
27326 C 17.914626277766587 5.5228689241541815 0.014355983507797987 C 0.0 **** -0.24
27327 H 18.641492503078553 5.991572736990008 0.6778879170345675 H 0.0 **** 0.06
27328 H 16.908561789413767 5.690482537130549 0.4007513697098517 H 0.0 **** 0.06
27329 H 18.10976727128795 4.450877571274475 -0.03843635659673339 H 0.0 **** 0.06
27330 H 17.99919314604881 5.957421644067949 -0.9815610577800555 H 0.0 **** 0.06
27331 C 67.70192712232961 12.585381980710817 28.614652805569676 C 0.0 **** -0.24
27332 H 67.69295988616216 11.507967357628985 28.446029621104344 H 0.0 **** 0.06
27333 H 66.67701846866942 12.949656176649103 28.69130137316975 H 0.0 **** 0.06
27334 H 68.20224846067839 13.07942301349064 27.781848868279866 H 0.0 **** 0.06
27335 H 68.23577674857785 12.802180833969857 29.54021925682892 H 0.0 **** 0.06
27336 C 84.76145216120494 27.91163237568034 49.339836864481725 C 0.0 **** -0.24
27337 H 85.10803751960864 26.96808114326214 48.91828372229162 H 0.0 **** 0.06
27338 H 85.12655642718536 28.737201299173364 48.72927712828053 H 0.0 **** 0.06
27339 H 85.14040096573666 28.015806298160527 50.356631828976646 H 0.0 **** 0.06
27340 H 83.67126875693768 27.92363492735862 49.35588425782214 H 0.0 **** 0.06
27341 C 73.73672935231116 79.04423512020324 84.38591946010192 C 0.0 **** -0.24
27342 H 73.73671752466635 80.13422897174021 84.36781391214745 H 0.0 **** 0.06
27343 H 72.73787159622145 78.6771505068017 84.14877078581017 H 0.0 **** 0.06
27344 H 74.02611053309153 78.69709499625131 85.37757445520162 H 0.0 **** 0.06
27345 H 74.44680420469183 78.66916853309675 83.6491154633652 H 0.0 **** 0.06
27346 C 30.061544978787907 27.32907650160186 8.808406777250866 C 0.0 **** -0.24
27347 H 30.617407423275885 27.75213790905363 9.646238789944391 H 0.0 **** 0.06
27348 H 29.324946892053205 26.61769922290975 9.183269519415944 H 0.0 **** 0.06
27349 H 30.75142549698039 26.81760726987102 8.137066704903617 H 0.0 **** 0.06
27350 H 29.554877937596203 28.128724933249515 8.26925261282446 H 0.0 **** 0.06
27351 C 83.37470830615942 68.8677520085628 85.52753048684801 C 0.0 **** -0.24
27352 H 84.27657542448202 69.47842521345905 85.49906523886486 H 0.0 **** 0.06
27353 H 83.17857608728954 68.55692786755861 86.55398502993631 H 0.0 **** 0.06
27354 H 83.51321254348099 67.98657809743003 84.900117885712 H 0.0 **** 0.06
27355 H 82.53093832112236 69.44917829090039 85.15607648774795 H 0.0 **** 0.06
27356 C 1.1555377608548838 95.88936188033182 59.544276447301435 C 0.0 **** -0.24
27357 H 1.641689037887545 95.65654980986994 58.59657559881229 H 0.0 **** 0.06
27358 H 0.5808981216414963 95.02532553684549 59.879082234437966 H 0.0 **** 0.06
27359 H 0.4887301977511811 96.74077555387271 59.4113450015053 H 0.0 **** 0.06
27360 H 1.912956898287291 96.13415955289949 60.2898090184675 H 0.0 **** 0.06
27361 C 12.108887568978744 96.18824367130338 8.528535306768203 C 0.0 **** -0.24
27362 H 12.400206943901651 96.7248924198172 7.625238803966337 H 0.0 **** 0.06
27363 H 12.995695583079765 95.76898383084801 9.003112048599009 H 0.0 **** 0.06
27364 H 11.421271659108157 95.38407138649964 8.266345118064189 H 0.0 **** 0.06
27365 H 11.61856775720824 96.87612012378207 9.216657971102814 H 0.0 **** 0.06
27366 C 34.744746529676036 84.94527815895438 38.860038401994814 C 0.0 **** -0.24
27367 H 35.30845429419469 85.69315331786751 39.41748317688899 H 0.0 **** 0.06
27368 H 34.84352205985658 83.97574845961316 39.34842959352039 H 0.0 **** 0.06
27369 H 35.13369918969306 84.88159820134396 37.84309928853327 H 0.0 **** 0.06
27370 H 33.69338527257719 85.23161032036214 38.830141948359426 H 0.0 **** 0.06
27371 C 66.60668144494318 7.75298805651849 30.696341855208672 C 0.0 **** -0.24
27372 H 66.09995005540571 6.816492333550272 30.462377169279677 H 0.0 **** 0.06
27373 H 66.73487363421589 8.334396439575897 29.782297792288844 H 0.0 **** 0.06
27374 H 67.58405544708148 7.538525879353017 31.12981444230823 H 0.0 **** 0.06
27375 H 66.00969466618324 8.321698797959641 31.408907808899556 H 0.0 **** 0.06
27376 C 14.789009106983976 67.82672487506963 66.40068699580596 C 0.0 **** -0.24
27377 H 14.513462650053828 67.84659204471899 67.45565045558982 H 0.0 **** 0.06
27378 H 13.899008124334955 67.6496220280552 65.79675469183908 H 0.0 **** 0.06
27379 H 15.510239713698617 67.02870105988967 66.22938114860975 H 0.0 **** 0.06
27380 H 15.232701792047902 68.78334634772341 66.12408516767834 H 0.0 **** 0.06
27381 C 38.566621472248755 41.4032807841148 104.82617478653853 C 0.0 **** -0.24
27382 H 38.115119064834516 40.42198337460471 104.6798280532258 H 0.0 **** 0.06
27383 H 38.2958848462514 41.7852219866231 105.81045928844037 H 0.0 **** 0.06
27384 H 38.20436155281641 42.08706554841265 104.0581386096737 H 0.0 **** 0.06
27385 H 39.650816574127646 41.31794231867005 104.75343061636065 H 0.0 **** 0.06
27386 C 93.72188033864239 100.04404774301602 81.06450197766884 C 0.0 **** -0.24
27387 H 94.10775310805613 99.68747296519348 82.01977055273699 H 0.0 **** 0.06
27388 H 92.97662111475353 99.34369082138727 80.68867062214059 H 0.0 **** 0.06
27389 H 94.54111202491063 100.12303609647961 80.3498743318101 H 0.0 **** 0.06
27390 H 93.26388886007979 101.02381180086445 81.20219227292131 H 0.0 **** 0.06
27391 C 80.47331615375856 61.509579498934734 39.67883070097409 C 0.0 **** -0.24
27392 H 79.61923345955267 61.25391524762633 39.05241559774264 H 0.0 **** 0.06
27393 H 81.34152386082553 61.70360622450968 39.04799754601345 H 0.0 **** 0.06
27394 H 80.69107225395067 60.679775688742716 40.35220829370223 H 0.0 **** 0.06
27395 H 80.24143504070537 62.40102083486011 40.26270136643812 H 0.0 **** 0.06
27396 C 47.72516573639168 30.915611634902348 83.90109104373568 C 0.0 **** -0.24
27397 H 47.75760423356829 30.59267504765316 84.942087271341 H 0.0 **** 0.06
27398 H 47.41899477491781 30.080264631815965 83.27047215709956 H 0.0 **** 0.06
27399 H 48.71444612762055 31.25729625780275 83.5964907785642 H 0.0 **** 0.06
27400 H 47.01071658206407 31.731986903071487 83.79617580948346 H 0.0 **** 0.06
27401 C 24.273675894377902 8.25080286303564 112.0708974617576 C 0.0 **** -0.24
27402 H 24.280430380557135 7.16226578686717 112.13400727090576 H 0.0 **** 0.06
27403 H 25.22048016852051 8.595779635836323 111.65470866560653 H 0.0 **** 0.06
27404 H 24.139628173791664 8.670667897955445 113.06810655898698 H 0.0 **** 0.06
27405 H 23.45411864465811 8.571556257135711 111.42792657851297 H 0.0 **** 0.06
27406 C 32.140201770663566 57.030640853860604 51.54079455283476 C 0.0 **** -0.24
27407 H 31.602862271007723 56.12733958548657 51.25306128241152 H 0.0 **** 0.06
27408 H 31.42889292023375 57.84245701409989 51.696411693608724 H 0.0 **** 0.06
27409 H 32.837635431114734 57.30645424454994 50.749162875288924 H 0.0 **** 0.06
27410 H 32.691259116763604 56.84830604311628 52.46312756198917 H 0.0 **** 0.06
27411 C 56.4454733921271 32.77056206873277 45.15288238536198 C 0.0 **** -0.24
27412 H 56.354012802948766 32.069464529171 44.322498337922866 H 0.0 **** 0.06
27413 H 57.35748875409592 33.35612605110596 45.033604406943425 H 0.0 **** 0.06
27414 H 56.48769344916825 32.216893415763934 46.09081302030651 H 0.0 **** 0.06
27415 H 55.58305590720144 33.43610965062621 45.161872027186064 H 0.0 **** 0.06
27416 C 45.0472712561419 31.716911942286117 33.315558661591496 C 0.0 **** -0.24
27417 H 44.26304792972678 32.32030442185905 32.85634217076796 H 0.0 **** 0.06
27418 H 44.59376410925964 30.89417763434264 33.869155056575124 H 0.0 **** 0.06
27419 H 45.629398306663575 32.33687521176347 33.99778374375151 H 0.0 **** 0.06
27420 H 45.69983727664612 31.318332117499835 32.53973263892371 H 0.0 **** 0.06
27421 C 34.0689620743772 80.85519261598779 61.88340061068363 C 0.0 **** -0.24
27422 H 34.749035150451604 81.67552164126323 61.65423411464999 H 0.0 **** 0.06
27423 H 33.54714127142395 80.55031942386628 60.976513764079364 H 0.0 **** 0.06
27424 H 33.343189558239914 81.18221238588623 62.62800299829281 H 0.0 **** 0.06
27425 H 34.637592953888685 80.01202211766426 62.27666371657681 H 0.0 **** 0.06
27426 C 4.320532410404496 7.610112978552152 87.80066979237577 C 0.0 **** -0.24
27427 H 3.3663356128531063 7.090529825561646 87.71377213364858 H 0.0 **** 0.06
27428 H 4.650017463345364 7.593653763024918 88.83947587395727 H 0.0 **** 0.06
27429 H 4.203531830691361 8.642621585302052 87.4713625848475 H 0.0 **** 0.06
27430 H 5.062540797023189 7.111726083636597 87.17578298401176 H 0.0 **** 0.06
27431 C 97.4552866281121 96.74518253215356 27.9255176219977 C 0.0 **** -0.24
27432 H 97.62394996000202 97.51091335207929 28.68185571431505 H 0.0 **** 0.06
27433 H 96.4283466826418 96.8079234131165 27.567325985390113 H 0.0 **** 0.06
27434 H 97.62926615013438 95.76062256471849 28.361032551814475 H 0.0 **** 0.06
27435 H 98.14110625183366 96.90030606462892 27.093179666711592 H 0.0 **** 0.06
27436 C 93.74981391131735 105.62678466705702 93.75537911618716 C 0.0 **** -0.24
27437 H 92.73806939323032 105.70043149368237 93.3562079987833 H 0.0 **** 0.06
27438 H 93.86663010563484 106.32801462012748 94.58071106811352 H 0.0 **** 0.06
27439 H 94.46742719863036 105.86502413893353 92.9707323971987 H 0.0 **** 0.06
27440 H 93.92556244265236 104.61192418637407 94.1122825404471 H 0.0 **** 0.06
27441 C 0.881857599489341 45.55503791912156 10.952758464186346 C 0.0 **** -0.24
27442 H 0.6348425282930155 46.13998753620916 11.83899822756102 H 0.0 **** 0.06
27443 H 0.1198906064208547 44.790381196763065 10.79872327276836 H 0.0 **** 0.06
27444 H 1.8524776251377464 45.07800591225276 11.091433136705952 H 0.0 **** 0.06
27445 H 0.920059560894062 46.21134297995724 10.083215665817825 H 0.0 **** 0.06
27446 C 49.566798328820795 49.46106196669595 30.32361521729983 C 0.0 **** -0.24
27447 H 48.8502808530352 49.80699915673827 29.578583970070127 H 0.0 **** 0.06
27448 H 49.479467067517845 48.380133388707804 30.437207017585926 H 0.0 **** 0.06
27449 H 49.361439468102475 49.946022536006836 31.27776790695492 H 0.0 **** 0.06
27450 H 50.57680223768898 49.711355572210636 29.99860041596652 H 0.0 **** 0.06
27451 C 50.66433359145623 57.038553874928745 1.7228169651127416 C 0.0 **** -0.24
27452 H 50.01673649934571 56.73715714662687 0.8996514943050045 H 0.0 **** 0.06
27453 H 50.207347594761075 57.870764711810544 2.2583151586656953 H 0.0 **** 0.06
27454 H 51.6331906978067 57.34582951064681 1.3291750234251225 H 0.0 **** 0.06
27455 H 50.79895953303338 56.19767640593266 2.4039883015410766 H 0.0 **** 0.06
27456 C 110.35822061397654 99.71644926479593 20.914256314062516 C 0.0 **** -0.24
27457 H 109.37508343272738 99.6915593027253 21.383636893076357 H 0.0 **** 0.06
27458 H 111.12528203781183 99.52992192055763 21.667185808568775 H 0.0 **** 0.06
27459 H 110.52184299104043 100.69508583752935 20.463785973721375 H 0.0 **** 0.06
27460 H 110.41268636997354 98.94788272606814 20.14278474108907 H 0.0 **** 0.06
27461 C 1.6032919329520698 97.60643105090472 14.878246261814809 C 0.0 **** -0.24
27462 H 2.4704566737190934 97.15195258693879 15.356453305982015 H 0.0 **** 0.06
27463 H 1.0910409824532765 96.86019883513993 14.270996866071968 H 0.0 **** 0.06
27464 H 1.9292105105615942 98.43039301875359 14.242733714634454 H 0.0 **** 0.06
27465 H 0.9236771487872852 97.98424006753069 15.642173933400102 H 0.0 **** 0.06
27466 C 4.175260760690861 42.21993853674387 68.82227165705521 C 0.0 **** -0.24
27467 H 3.320635322666135 42.249227151801534 68.14689703060444 H 0.0 **** 0.06
27468 H 3.839751997549172 41.93851118304718 69.82119307024956 H 0.0 **** 0.06
27469 H 4.642669749426716 43.204364949532646 68.85994014303043 H 0.0 **** 0.06
27470 H 4.898663171166675 41.487635400163725 68.46179206119771 H 0.0 **** 0.06
27471 C 28.237071710322653 87.41249299366612 25.99162431902201 C 0.0 **** -0.24
27472 H 28.385351762484447 86.45515052927948 25.492932260037463 H 0.0 **** 0.06
27473 H 27.58107403266135 88.03951353925589 25.38681960789502 H 0.0 **** 0.06
27474 H 29.19963984508462 87.90892509309157 26.118994680031676 H 0.0 **** 0.06
27475 H 27.782486382008898 87.24754144347867 26.968517127505706 H 0.0 **** 0.06
27476 C 104.43007526050533 102.78643142890073 85.71242313051843 C 0.0 **** -0.24
27477 H 104.90574170943862 103.41822228238993 86.46209645822395 H 0.0 **** 0.06
27478 H 103.89901354208556 101.97296478022247 86.20707136014954 H 0.0 **** 0.06
27479 H 105.18987047686855 102.37502315125249 85.04917750957733 H 0.0 **** 0.06
27480 H 103.72360874196099 103.38140436916512 85.13174958096832 H 0.0 **** 0.06
27481 C 106.16176684566972 20.279596619068073 12.632881703189895 C 0.0 **** -0.24
27482 H 106.77740077543062 19.870794195603295 11.83087365891977 H 0.0 **** 0.06
27483 H 106.65402207554824 20.10860111148842 13.591504074819568 H 0.0 **** 0.06
27484 H 105.1894787013363 19.787889179277112 12.63066984403308 H 0.0 **** 0.06
27485 H 106.02853427286814 21.35051993908339 12.478707351813128 H 0.0 **** 0.06
27486 C 27.407890084328585 60.18219684126125 94.98932579147086 C 0.0 **** -0.24
27487 H 26.545540728252917 60.2697122236494 94.32876617293559 H 0.0 **** 0.06
27488 H 27.890062523929743 59.216683293532974 94.83115243909339 H 0.0 **** 0.06
27489 H 27.080525857657136 60.258696783186174 96.02663522665333 H 0.0 **** 0.06
27490 H 28.1152078978578 60.98165535461221 94.77163814121778 H 0.0 **** 0.06
27491 C 18.767125554437474 25.33165661733105 2.7336150839402613 C 0.0 **** -0.24
27492 H 18.871389804689937 25.22640291951309 3.8133094812049 H 0.0 **** 0.06
27493 H 18.61613799781756 26.38305902147964 2.484550322548486 H 0.0 **** 0.06
27494 H 17.909742377005394 24.750859832846288 2.39271392138801 H 0.0 **** 0.06
27495 H 19.67012901969182 24.96823571088693 2.243652488374618 H 0.0 **** 0.06
27496 C 33.936572398840326 56.52103581826529 69.00050147959368 C 0.0 **** -0.24
27497 H 34.619903393662554 55.82608097089269 68.51085570000001 H 0.0 **** 0.06
27498 H 33.951608098048325 56.34698221369143 70.07743963277028 H 0.0 **** 0.06
27499 H 32.92736942761164 56.365241141150676 68.62084544708841 H 0.0 **** 0.06
27500 H 34.25022548439598 57.54409525659037 68.79270464784429 H 0.0 **** 0.06
27501 C 45.66629735656986 6.776690932047856 111.85625204892239 C 0.0 **** -0.24
27502 H 46.253046037200136 7.51745324639289 112.4004079330096 H 0.0 **** 0.06
27503 H 44.749105610813615 7.239572395278543 111.48919270353917 H 0.0 **** 0.06
27504 H 45.41675380499015 5.951040572199361 112.5223067466107 H 0.0 **** 0.06
27505 H 46.246374929333065 6.401640684982752 111.01367525483573 H 0.0 **** 0.06
27506 C 3.675143450597517 13.588607792280754 18.509039732754616 C 0.0 **** -0.24
27507 H 4.553711996846005 13.032558769418529 18.18306559307871 H 0.0 **** 0.06
27508 H 3.8725734994217476 14.045878835042203 19.47854370588857 H 0.0 **** 0.06
27509 H 2.8264866708810814 12.90960353436131 18.592659625474 H 0.0 **** 0.06
27510 H 3.4465207386500936 14.366336200651773 17.779802724460808 H 0.0 **** 0.06
27511 C 73.4353765280269 60.874937829060116 85.51528163547289 C 0.0 **** -0.24
27512 H 72.73870423872529 60.28864082066977 86.11391164826131 H 0.0 **** 0.06
27513 H 74.00410652682666 60.20924550400946 84.8649460391292 H 0.0 **** 0.06
27514 H 74.11923462471003 61.410357056181056 86.17450222843763 H 0.0 **** 0.06
27515 H 72.88026568507775 61.58951743363153 84.9089457262821 H 0.0 **** 0.06
27516 C 51.4251816829879 93.51116881640661 26.484226800834705 C 0.0 **** -0.24
27517 H 50.44163040129993 93.1455901425706 26.7826302367597 H 0.0 **** 0.06
27518 H 51.48936293912732 93.53467767137121 25.396204507713037 H 0.0 **** 0.06
27519 H 52.19357566878139 92.84643432546841 26.87978105299456 H 0.0 **** 0.06
27520 H 51.57366169640255 94.51560223003591 26.87975752249082 H 0.0 **** 0.06
27521 C 69.95525278795952 63.67531409580827 90.72478964574637 C 0.0 **** -0.24
27522 H 70.79610268122175 64.26071958244569 91.09674429560397 H 0.0 **** 0.06
27523 H 69.02107383630005 64.15719656971083 91.01262351674671 H 0.0 **** 0.06
27524 H 69.99411877355539 62.67234242524011 91.15193102230381 H 0.0 **** 0.06
27525 H 70.011478018769 63.60997841293757 89.63878490825743 H 0.0 **** 0.06
27526 C 110.55378924107404 83.24404081841737 101.54428136262055 C 0.0 **** -0.24
27527 H 111.34392584215117 83.96356274740123 101.32785405728092 H 0.0 **** 0.06
27528 H 109.88693478607915 83.6544868680372 102.30227842345465 H 0.0 **** 0.06
27529 H 110.99588807558905 82.31829862888688 101.9118373138154 H 0.0 **** 0.06
27530 H 109.98942631682355 83.04193615607403 100.63447394997397 H 0.0 **** 0.06
27531 C 22.302619260166153 104.84530464910162 17.460534182046427 C 0.0 **** -0.24
27532 H 22.365434745648088 104.08244136659417 18.235760050695816 H 0.0 **** 0.06
27533 H 22.686176465274173 104.44298269765028 16.523059759752485 H 0.0 **** 0.06
27534 H 22.89430124615444 105.71162520697536 17.754390342120576 H 0.0 **** 0.06
27535 H 21.262518845167847 105.14343468091698 17.328401660639933 H 0.0 **** 0.06
27536 C 92.08787954354065 73.59366923936378 18.835800726183322 C 0.0 **** -0.24
27537 H 92.59203125872187 72.76350731679838 18.340628387953387 H 0.0 **** 0.06
27538 H 91.04491651283931 73.62464663998108 18.520160231991866 H 0.0 **** 0.06
27539 H 92.57766927619798 74.52860075569038 18.565333698872337 H 0.0 **** 0.06
27540 H 92.13757725372977 73.45582102218893 19.916018486607214 H 0.0 **** 0.06
27541 C 90.32837581932282 19.116537188733673 74.37668628711106 C 0.0 **** -0.24
27542 H 90.38572089395709 20.17820785483562 74.61860440828008 H 0.0 **** 0.06
27543 H 89.86922177989365 18.579283460971993 75.20596388636787 H 0.0 **** 0.06
27544 H 91.33282610456061 18.729546991685993 74.20360066642161 H 0.0 **** 0.06
27545 H 89.72648627851001 18.982172996139212 73.47833914287165 H 0.0 **** 0.06
27546 C 4.934115209885505 76.12191211378098 11.983797401442757 C 0.0 **** -0.24
27547 H 5.336850296041661 75.17870741827798 11.615819557754037 H 0.0 **** 0.06
27548 H 5.587851785472083 76.93982863790288 11.678875265478439 H 0.0 **** 0.06
27549 H 4.87392397506386 76.09066586658707 13.07208005109652 H 0.0 **** 0.06
27550 H 3.9387200685700066 76.27851469327763 11.569901941466128 H 0.0 **** 0.06
27551 C 2.8982686214045827 53.03993632862261 1.824665559845645 C 0.0 **** -0.24
27552 H 3.803463993747613 52.60115647171245 2.2443165573519526 H 0.0 **** 0.06
27553 H 2.939858179971992 52.98562348890734 0.736615083899828 H 0.0 **** 0.06
27554 H 2.823068846066505 54.082134501312346 2.1344482821342314 H 0.0 **** 0.06
27555 H 2.0284036932847442 52.48908880159411 2.1833624177528392 H 0.0 **** 0.06
27556 C 107.49079342351375 64.55877229155809 5.306799349260103 C 0.0 **** -0.24
27557 H 106.67431966144271 63.8444901840798 5.198775838443652 H 0.0 **** 0.06
27558 H 108.0840593246281 64.30105474203904 6.184112077173964 H 0.0 **** 0.06
27559 H 107.08057171097357 65.56195722658748 5.426547306998671 H 0.0 **** 0.06
27560 H 108.12011389237352 64.52740455306704 4.418050152837679 H 0.0 **** 0.06
27561 C 39.88111711794618 108.64131665431947 96.97661629075222 C 0.0 **** -0.24
27562 H 39.30409894271649 107.9029677306319 97.53519877945013 H 0.0 **** 0.06
27563 H 40.709162233553805 108.14632839877288 96.47031080831937 H 0.0 **** 0.06
27564 H 40.270829314450005 109.39287044553276 97.66368668789133 H 0.0 **** 0.06
27565 H 39.23750160351859 109.12108500632684 96.23942922213217 H 0.0 **** 0.06
27566 C 84.10634661671585 104.97462373421558 35.66318594688022 C 0.0 **** -0.24
27567 H 85.06555478240472 104.6478921000076 35.25970160935856 H 0.0 **** 0.06
27568 H 84.13404668840906 106.05127757374325 35.835791562779434 H 0.0 **** 0.06
27569 H 83.91432503997561 104.4596440117918 36.6047044085708 H 0.0 **** 0.06
27570 H 83.31454087783507 104.74042884800639 34.95157170988642 H 0.0 **** 0.06
27571 C 69.3824536263298 32.166722430436835 13.67662279666996 C 0.0 **** -0.24
27572 H 68.64766123784028 32.59964083172093 12.998662525695323 H 0.0 **** 0.06
27573 H 69.9174509098051 32.966117157114184 14.190759404719017 H 0.0 **** 0.06
27574 H 70.08985963486069 31.562973147932155 13.107861905795687 H 0.0 **** 0.06
27575 H 68.875283634075 31.538638021776478 14.408448539332795 H 0.0 **** 0.06
27576 C 6.605593471702662 68.73807572142829 0.8599805525992252 C 0.0 **** -0.24
27577 H 6.434590022609768 69.05347953114341 -0.16932827003751072 H 0.0 **** 0.06
27578 H 6.28344327797565 67.70323875531989 0.980289134780918 H 0.0 **** 0.06
27579 H 6.036105279947904 69.37704982363914 1.534835116144862 H 0.0 **** 0.06
27580 H 7.667115234267229 68.81773927552945 1.0920981864480268 H 0.0 **** 0.06
27581 C 48.46807826519768 51.095804860036935 23.585734499337576 C 0.0 **** -0.24
27582 H 47.71138202655932 51.62813806432507 24.16106526307243 H 0.0 **** 0.06
27583 H 49.1710572647597 50.61615595362849 24.26638845702911 H 0.0 **** 0.06
27584 H 49.0018035253571 51.800549355511464 22.948649816684764 H 0.0 **** 0.06
27585 H 47.98666089291424 50.33837043236207 22.966951980332993 H 0.0 **** 0.06
27586 C 108.5865435145009 87.16504428208088 7.459339698501225 C 0.0 **** -0.24
27587 H 108.18218407781782 86.24746555456724 7.03328330447593 H 0.0 **** 0.06
27588 H 108.64024310367863 87.93208042339919 6.685893916323977 H 0.0 **** 0.06
27589 H 109.58580416474356 86.97445665338358 7.851874977517269 H 0.0 **** 0.06
27590 H 107.93799237904415 87.50758649551639 8.266244091890286 H 0.0 **** 0.06
27591 C 93.0276336445084 56.92464416312757 40.867465180258925 C 0.0 **** -0.24
27592 H 92.05665972555875 56.936204757682475 40.37376050160148 H 0.0 **** 0.06
27593 H 93.05662778667124 56.111721043619866 41.59321082962946 H 0.0 **** 0.06
27594 H 93.1862642158641 57.874509898101024 41.37767964083412 H 0.0 **** 0.06
27595 H 93.811532870712 56.77657787515315 40.12398227606966 H 0.0 **** 0.06
27596 C 96.73790849084529 110.5694149081271 33.19857889308738 C 0.0 **** -0.24
27597 H 97.01865735385553 110.52540866715918 34.251730362465125 H 0.0 **** 0.06
27598 H 95.75123239723493 111.02379404150946 33.10494494467675 H 0.0 **** 0.06
27599 H 96.71305516588217 109.55995904086637 32.78781914870944 H 0.0 **** 0.06
27600 H 97.46788739119813 111.1665623351123 32.65337244972734 H 0.0 **** 0.06
27601 C 47.92715969089657 28.940400016537012 31.13151217024739 C 0.0 **** -0.24
27602 H 47.846178868173894 29.863443668720983 30.55714910343545 H 0.0 **** 0.06
27603 H 48.26978781210229 28.136796038850505 30.478758715267617 H 0.0 **** 0.06
27604 H 46.950441164259466 28.683156359869777 31.543636081383198 H 0.0 **** 0.06
27605 H 48.639540859885706 29.07889673084157 31.94399789079617 H 0.0 **** 0.06
27606 C 69.08702240051181 18.427230783291975 20.480506456628092 C 0.0 **** -0.24
27607 H 69.28345146848542 17.575820700895292 19.828168403873747 H 0.0 **** 0.06
27608 H 69.31447341608626 19.35171639667658 19.948463362649107 H 0.0 **** 0.06
27609 H 69.7123752035879 18.3550096215115 21.370231893668944 H 0.0 **** 0.06
27610 H 68.03712472179234 18.42455949300006 20.772660683464238 H 0.0 **** 0.06
27611 C 45.20398529226841 81.11708428509786 1.597841241419232 C 0.0 **** -0.24
27612 H 45.76447860279683 80.20797964655975 1.3772296771340962 H 0.0 **** 0.06
27613 H 44.84014350898559 81.07802992460205 2.624736718767892 H 0.0 **** 0.06
27614 H 44.35872031226475 81.19710043064589 0.9147403076664773 H 0.0 **** 0.06
27615 H 45.85387143353333 81.98338917630616 1.4746088430017323 H 0.0 **** 0.06
27616 C 104.49264801543146 48.973572340008076 29.77412287917798 C 0.0 **** -0.24
27617 H 104.3005553048842 48.64284481549714 30.79540254326787 H 0.0 **** 0.06
27618 H 105.49777560635619 48.673010211868046 29.477661505949925 H 0.0 **** 0.06
27619 H 104.40685914392301 50.05894426402895 29.72363093292114 H 0.0 **** 0.06
27620 H 103.76392347843827 48.5195739202031 29.10276428581983 H 0.0 **** 0.06
27621 C 8.494759503620259 17.741161286842694 23.15663871602169 C 0.0 **** -0.24
27622 H 9.549573635980408 17.514551002385193 22.99983201474572 H 0.0 **** 0.06
27623 H 8.112128506983964 17.137984215701742 23.980519400557455 H 0.0 **** 0.06
27624 H 7.9357495726114 17.514619573069933 22.249506388719055 H 0.0 **** 0.06
27625 H 8.38262241397993 18.79884646354401 23.39814195524434 H 0.0 **** 0.06
27626 C 36.8185214066371 70.58603450540045 16.475994097268284 C 0.0 **** -0.24
27627 H 36.75081949900027 69.58488574156257 16.052544117078696 H 0.0 **** 0.06
27628 H 37.77392063470566 70.70046943905032 16.98852153754821 H 0.0 **** 0.06
27629 H 36.00569180669598 70.73627904526035 17.185968016151577 H 0.0 **** 0.06
27630 H 36.74402773185585 71.32446386147399 15.676806854480674 H 0.0 **** 0.06
27631 C 85.80519079852013 90.8896476121347 35.76894556627374 C 0.0 **** -0.24
27632 H 86.6844324870342 90.26079318539823 35.62713730498473 H 0.0 **** 0.06
27633 H 86.11974138147079 91.92043332251413 35.93662449579983 H 0.0 **** 0.06
27634 H 85.24129428592818 90.53605425926668 36.63311160896478 H 0.0 **** 0.06
27635 H 85.17648795593675 90.84092895143382 34.879566205250484 H 0.0 **** 0.06
27636 C 70.60371380178802 95.14755058217906 89.65826959487748 C 0.0 **** -0.24
27637 H 70.61770612655553 94.05813012536925 89.66599070478964 H 0.0 **** 0.06
27638 H 70.70656092843456 95.50598345574957 88.63361366107594 H 0.0 **** 0.06
27639 H 71.42954296037547 95.52581905018647 90.2606030111703 H 0.0 **** 0.06
27640 H 69.66006870996719 95.50113637731371 90.07400921131853 H 0.0 **** 0.06
27641 C 54.56047737937687 1.7009746559475047 60.169254045929655 C 0.0 **** -0.24
27642 H 54.904073334568075 0.8431121994825901 60.74789318664153 H 0.0 **** 0.06
27643 H 55.327180359214275 2.4762190991878157 60.18070099976689 H 0.0 **** 0.06
27644 H 53.64222699050151 2.090753102695288 60.609478331035 H 0.0 **** 0.06
27645 H 54.36840257453293 1.392861311940905 59.14120012643074 H 0.0 **** 0.06
27646 C 75.36674694427631 98.90539691731777 16.3064821157883 C 0.0 **** -0.24
27647 H 74.58823125914745 98.39520144891657 16.87483269053041 H 0.0 **** 0.06
27648 H 76.34412730082158 98.63747205409177 16.70797097533591 H 0.0 **** 0.06
27649 H 75.22535360236927 99.98380226479881 16.384905809251507 H 0.0 **** 0.06
27650 H 75.30801789779437 98.60601257584878 15.260118270534122 H 0.0 **** 0.06
27651 C 82.33636470185169 15.324671905167861 99.2904999882926 C 0.0 **** -0.24
27652 H 83.42467709956847 15.354889696114583 99.25003598208559 H 0.0 **** 0.06
27653 H 81.9259714029464 15.856783061462323 98.43268974843343 H 0.0 **** 0.06
27654 H 81.99354960841708 15.799721215111617 100.21031704621649 H 0.0 **** 0.06
27655 H 82.00027210092568 14.288108077052527 99.27167008901077 H 0.0 **** 0.06
27656 C 34.09775934694653 32.79066979562662 66.12759905866298 C 0.0 **** -0.24
27657 H 33.45617749885804 32.745357292313244 65.24766503209293 H 0.0 **** 0.06
27658 H 35.05731884398 32.32528357656476 65.9014074339508 H 0.0 **** 0.06
27659 H 33.62152643627701 32.26007595032909 66.95202720625934 H 0.0 **** 0.06
27660 H 34.25563657963835 33.83198305431361 66.40837096921166 H 0.0 **** 0.06
27661 C 105.05602049717623 44.18102790075511 43.47024629362562 C 0.0 **** -0.24
27662 H 104.63196770782753 43.34209699986792 42.91928394185919 H 0.0 **** 0.06
27663 H 104.62870383309661 45.112587048683054 43.097827888268114 H 0.0 **** 0.06
27664 H 106.13776501011142 44.19686616740529 43.333782374675195 H 0.0 **** 0.06
27665 H 104.82461956877472 44.073529202515545 44.529985899676035 H 0.0 **** 0.06
27666 C 27.02693408756744 7.650788633506181 1.929717824419754 C 0.0 **** -0.24
27667 H 27.038518397844257 7.120109770928423 2.8819768037597555 H 0.0 **** 0.06
27668 H 27.694188573152275 7.150591766532401 1.2275789822397485 H 0.0 **** 0.06
27669 H 27.36239133169775 8.67732522793905 2.08214987204218 H 0.0 **** 0.06
27670 H 26.013761466887132 7.654592447642088 1.5287313942124001 H 0.0 **** 0.06
27671 C 18.516242693850245 52.20184568602946 112.04097137093372 C 0.0 **** -0.24
27672 H 17.854594967330314 53.03498228379894 112.275129452109 H 0.0 **** 0.06
27673 H 17.960263080513926 51.43966948158618 111.4945406602662 H 0.0 **** 0.06
27674 H 18.905838700428063 51.775348763942304 112.96540672619206 H 0.0 **** 0.06
27675 H 19.34479534444756 52.55711352607909 111.42665079479113 H 0.0 **** 0.06
27676 C 23.06294785621691 30.00832892638661 68.42658257140516 C 0.0 **** -0.24
27677 H 23.424353963045718 29.61602897865548 67.47574725708424 H 0.0 **** 0.06
27678 H 23.247993969076674 31.0816595692894 68.4701102747683 H 0.0 **** 0.06
27679 H 23.586062423320442 29.51527045299649 69.24509451550722 H 0.0 **** 0.06
27680 H 21.99252664343412 29.820160702362926 68.51332109875048 H 0.0 **** 0.06
27681 C 7.772338868531705 108.01369231051578 16.93716898879123 C 0.0 **** -0.24
27682 H 7.843806593923986 109.02631510739442 16.540960974459267 H 0.0 **** 0.06
27683 H 6.860500162922264 107.91655098303357 17.525910097522257 H 0.0 **** 0.06
27684 H 8.637017811042142 107.8095174627098 17.569114700225754 H 0.0 **** 0.06
27685 H 7.750018517547645 107.30177691358904 16.111394368844742 H 0.0 **** 0.06
27686 C 110.80208110108217 12.06160044465804 20.387363090223147 C 0.0 **** -0.24
27687 H 110.89465328688061 12.636383203759692 21.308488771711808 H 0.0 **** 0.06
27688 H 111.50992598250721 12.442264625859167 19.64922560472195 H 0.0 **** 0.06
27689 H 109.78715739910342 12.157161681330365 19.99997002698919 H 0.0 **** 0.06
27690 H 111.01753215661472 11.012868068076841 20.590056434032476 H 0.0 **** 0.06
27691 C 71.80253925963754 22.06077645839505 88.06894201530966 C 0.0 **** -0.24
27692 H 72.0101955570467 22.512507248051236 89.03814811157159 H 0.0 **** 0.06
27693 H 72.56729728788847 21.31649368431752 87.84390029277466 H 0.0 **** 0.06
27694 H 71.81009986871689 22.832688674852065 87.29966915515209 H 0.0 **** 0.06
27695 H 70.82455508859405 21.58065324227113 88.09337596574713 H 0.0 **** 0.06
27696 C 91.2531065106287 62.567122940726726 51.556910420567505 C 0.0 **** -0.24
27697 H 90.23600776861136 62.17649072762787 51.59694847621535 H 0.0 **** 0.06
27698 H 91.74274613165284 62.400755597737664 52.516422972684346 H 0.0 **** 0.06
27699 H 91.22228930740715 63.63624893178632 51.34490015719005 H 0.0 **** 0.06
27700 H 91.80853506143367 62.055469324641244 50.77100324881935 H 0.0 **** 0.06
27701 C 65.09312691555596 15.791769895183151 57.43148169463086 C 0.0 **** -0.24
27702 H 64.63673035758273 16.138407536112666 58.35864614429465 H 0.0 **** 0.06
27703 H 65.71451340245522 16.5840731851729 57.014442484964775 H 0.0 **** 0.06
27704 H 64.31190881866411 15.52853954809666 56.718099972116306 H 0.0 **** 0.06
27705 H 65.71005609115207 14.916098921884096 57.635450269860485 H 0.0 **** 0.06
27706 C 94.13351237278715 53.073772177082965 20.13159066846356 C 0.0 **** -0.24
27707 H 93.58976459491674 52.32955261247893 20.712986361449538 H 0.0 **** 0.06
27708 H 94.01393729035962 52.86348506376399 19.068079219120136 H 0.0 **** 0.06
27709 H 95.19155061647339 53.03568995064965 20.391948578784238 H 0.0 **** 0.06
27710 H 93.74075498349757 54.06542888557972 20.352803029753645 H 0.0 **** 0.06
27711 C 87.62998167564143 10.518011787338594 97.68575777982844 C 0.0 **** -0.24
27712 H 88.37282565660482 11.017679900156395 97.06460406121485 H 0.0 **** 0.06
27713 H 87.62510618691081 10.967958695460311 98.67828957801851 H 0.0 **** 0.06
27714 H 87.87706978351838 9.459226276882873 97.76717727297952 H 0.0 **** 0.06
27715 H 86.64521150087901 10.626877950097423 97.23205169046969 H 0.0 **** 0.06
27716 C 70.2422488268399 28.83261901041405 65.68350549105674 C 0.0 **** -0.24
27717 H 71.2205039232594 29.27798967569271 65.5024907771529 H 0.0 **** 0.06
27718 H 70.13144072572496 28.62011139275512 66.7467902420791 H 0.0 **** 0.06
27719 H 70.15388937173026 27.906893110631387 65.11554729513102 H 0.0 **** 0.06
27720 H 69.46314168619162 29.527930989668448 65.36923527501426 H 0.0 **** 0.06
27721 C 9.912953118088012 21.07938885953149 53.68281756754763 C 0.0 **** -0.24
27722 H 10.102356516944724 22.10162297730193 54.00982082695333 H 0.0 **** 0.06
27723 H 9.245075456724749 21.09128655333126 52.821344830102674 H 0.0 **** 0.06
27724 H 9.451068517983401 20.517965533627887 54.49426552732504 H 0.0 **** 0.06
27725 H 10.856453864814625 20.607069955681254 53.40485044321821 H 0.0 **** 0.06
27726 C 102.64845984159732 30.977550887574353 97.60678135721244 C 0.0 **** -0.24
27727 H 103.732782523266 31.062570533567737 97.68092576367275 H 0.0 **** 0.06
27728 H 102.3939288901189 30.10120528686832 97.00891942339601 H 0.0 **** 0.06
27729 H 102.24536064112453 31.871954896379293 97.13256110286667 H 0.0 **** 0.06
27730 H 102.22405835810576 30.872339658432907 98.60516773521042 H 0.0 **** 0.06
27731 C 63.858467270143365 51.48157945885255 29.226941778083642 C 0.0 **** -0.24
27732 H 63.11937063901712 51.32250140924405 30.01195051498476 H 0.0 **** 0.06
27733 H 63.3877038038745 51.98564994147187 28.381935156780685 H 0.0 **** 0.06
27734 H 64.25531588312631 50.52051865285376 28.901762404127112 H 0.0 **** 0.06
27735 H 64.67066305464277 52.09814877344877 29.611829644180943 H 0.0 **** 0.06
27736 C 64.0988064911437 49.11409268057243 91.72176366708618 C 0.0 **** -0.24
27737 H 64.88255862432337 49.66481106227395 91.20111092500488 H 0.0 **** 0.06
27738 H 63.930485862044634 48.15985044567239 91.22130749083419 H 0.0 **** 0.06
27739 H 63.17784802636578 49.69688400154719 91.71381639975266 H 0.0 **** 0.06
27740 H 64.40565224855916 48.93446939934466 92.75285320278346 H 0.0 **** 0.06
27741 C 13.72506679606272 101.12550403763052 8.064082135858385 C 0.0 **** -0.24
27742 H 13.012727512533942 101.53947838419518 7.350270964719186 H 0.0 **** 0.06
27743 H 13.811242941829107 101.79413139650819 8.92070838319033 H 0.0 **** 0.06
27744 H 14.699281194077145 101.02096082294759 7.5853155150372515 H 0.0 **** 0.06
27745 H 13.378270482418117 100.1484149154958 8.398166657770588 H 0.0 **** 0.06
27746 C 55.44260081691994 6.61509132253874 14.60637846482473 C 0.0 **** -0.24
27747 H 56.35843643030314 6.417020193011519 15.16336172590843 H 0.0 **** 0.06
27748 H 55.27160534723897 5.809068155378865 13.892481680209812 H 0.0 **** 0.06
27749 H 55.540931220116974 7.559555211027467 14.071488319996888 H 0.0 **** 0.06
27750 H 54.60279500958185 6.67342593666393 15.29718201342115 H 0.0 **** 0.06
27751 C 27.773674911702898 105.46894674921683 58.997668717851276 C 0.0 **** -0.24
27752 H 26.934198372006776 105.57865344209259 59.68424862809005 H 0.0 **** 0.06
27753 H 27.496467129400344 104.78770308505784 58.192119585832195 H 0.0 **** 0.06
27754 H 28.631647686747954 105.06600274297887 59.53550160506111 H 0.0 **** 0.06
27755 H 28.030904204891925 106.4417725915178 58.57905750994002 H 0.0 **** 0.06
27756 C 99.820719220429 14.88390859915856 89.08281756884094 C 0.0 **** -0.24
27757 H 99.90182608545109 15.829160234339128 89.62016796968501 H 0.0 **** 0.06
27758 H 100.4511947748064 14.916058687612605 88.19463498790412 H 0.0 **** 0.06
27759 H 98.78417555674054 14.722599589461282 88.78891630362949 H 0.0 **** 0.06
27760 H 100.14614887791086 14.069246713788203 89.73097652327866 H 0.0 **** 0.06
27761 C 31.859446282034213 92.22682697076706 3.0105174018527805 C 0.0 **** -0.24
27762 H 32.83769835610662 92.25827486740928 2.531907708647566 H 0.0 **** 0.06
27763 H 31.13595154423129 91.7775775805151 2.329574828912314 H 0.0 **** 0.06
27764 H 31.543498308768157 93.24012588771089 3.2592332898543077 H 0.0 **** 0.06
27765 H 31.918930257193686 91.63127539187096 3.9210630176879135 H 0.0 **** 0.06
27766 C 56.07774827467483 11.808912078231685 13.095567125553146 C 0.0 **** -0.24
27767 H 55.581608504733595 12.244251616613209 12.227543356534653 H 0.0 **** 0.06
27768 H 56.97348153054787 12.385029748210933 13.32785952841607 H 0.0 **** 0.06
27769 H 56.3546614446916 10.77705803610888 12.875419852352366 H 0.0 **** 0.06
27770 H 55.40084667580862 11.82903402030848 13.94904393331774 H 0.0 **** 0.06
27771 C 85.5889845314685 106.67945525078451 89.23077377510339 C 0.0 **** -0.24
27772 H 84.84354260081324 106.57772947922655 90.01838883769202 H 0.0 **** 0.06
27773 H 85.09452221192572 106.93414516642629 88.29277510055269 H 0.0 **** 0.06
27774 H 86.1266651156146 105.73786409786985 89.11490256372397 H 0.0 **** 0.06
27775 H 86.29321051668612 107.46930339509743 89.49544745965207 H 0.0 **** 0.06
27776 C 108.30726912638607 102.68334874934737 79.22200541232553 C 0.0 **** -0.24
27777 H 108.00629939885229 102.88913360917593 80.24941293936627 H 0.0 **** 0.06
27778 H 108.39011721528615 101.60594339719842 79.0761207352283 H 0.0 **** 0.06
27779 H 109.27187925061179 103.15261153763927 79.02507849569429 H 0.0 **** 0.06
27780 H 107.56066749035037 103.08704038946578 78.53786546687826 H 0.0 **** 0.06
27781 C 82.7836868676745 49.55880568758033 45.02380890156968 C 0.0 **** -0.24
27782 H 82.7257181835335 49.628779015572974 46.10976319323379 H 0.0 **** 0.06
27783 H 83.08506452987271 50.52264315035572 44.61404040819377 H 0.0 **** 0.06
27784 H 81.80812684748301 49.283046340816355 44.62524556292544 H 0.0 **** 0.06
27785 H 83.5161480568496 48.80050000457632 44.74787147649948 H 0.0 **** 0.06
27786 C 76.81267558267103 101.86812489986536 20.4625534722301 C 0.0 **** -0.24
27787 H 76.48942822644625 102.65881913404331 19.785218115670375 H 0.0 **** 0.06
27788 H 77.78322381755726 101.48888804124394 20.14015463448166 H 0.0 **** 0.06
27789 H 76.08345528535654 101.05810166764812 20.450043142877007 H 0.0 **** 0.06
27790 H 76.89539442183957 102.26654576533392 21.473640404494915 H 0.0 **** 0.06
27791 C 7.815181324262953 42.04026448542464 80.68881375190341 C 0.0 **** -0.24
27792 H 8.774197332188216 41.544103862034035 80.83904804284032 H 0.0 **** 0.06
27793 H 7.853344412040698 42.636902586509166 79.77769580425417 H 0.0 **** 0.06
27794 H 7.602913745059176 42.68777493045445 81.53919663784205 H 0.0 **** 0.06
27795 H 7.029255354932484 41.28945740336087 80.59946858948638 H 0.0 **** 0.06
27796 C 4.761595389253692 30.72746148258409 74.85388601811098 C 0.0 **** -0.24
27797 H 4.990928413340226 29.667318056434453 74.74078545629393 H 0.0 **** 0.06
27798 H 4.610755307176669 31.17270709521671 73.87025345053888 H 0.0 **** 0.06
27799 H 5.588888283158646 31.2269627730156 75.35657203691778 H 0.0 **** 0.06
27800 H 3.853274878163356 30.840703491647105 75.44654236326161 H 0.0 **** 0.06
27801 C 112.67623388335087 55.72073030481214 67.18472241000057 C 0.0 **** -0.24
27802 H 112.11068383802098 54.909172014680216 67.64264672840426 H 0.0 **** 0.06
27803 H 112.19186043790802 56.02259238370092 66.25667339265135 H 0.0 **** 0.06
27804 H 113.69019250125697 55.38179838612794 66.97246440225922 H 0.0 **** 0.06
27805 H 112.71341817691987 56.56815632730569 67.86885677053758 H 0.0 **** 0.06
27806 C 54.06251502924846 62.42835539980552 58.773550362486766 C 0.0 **** -0.24
27807 H 53.141646296597855 62.87210625220178 58.39819157705934 H 0.0 **** 0.06
27808 H 53.8550208596389 61.88195628830507 59.69332454193758 H 0.0 **** 0.06
27809 H 54.78909270918007 63.21623412263023 58.97502852156445 H 0.0 **** 0.06
27810 H 54.46704143692318 61.74415978849613 58.027012221224915 H 0.0 **** 0.06
27811 C 78.22932404931788 81.27176988040614 65.13512365556434 C 0.0 **** -0.24
27812 H 78.7211393953043 81.51637388450507 66.07653957280667 H 0.0 **** 0.06
27813 H 78.04835168278254 80.19751268823049 65.09000251029974 H 0.0 **** 0.06
27814 H 78.8681315212404 81.56789260315364 64.30367330935192 H 0.0 **** 0.06
27815 H 77.27973363541355 81.80293420898232 65.07260267902973 H 0.0 **** 0.06
27816 C 49.674594744419636 47.42904051212895 21.033757954515636 C 0.0 **** -0.24
27817 H 50.75976764317525 47.33469813467758 21.087009764961564 H 0.0 **** 0.06
27818 H 49.4092679726846 48.46640324888699 20.83143986483539 H 0.0 **** 0.06
27819 H 49.23704577864427 47.12025705930438 21.98308722666968 H 0.0 **** 0.06
27820 H 49.293249383049584 46.79304823106406 20.234501450885404 H 0.0 **** 0.06
27821 C 35.155504507404004 49.475389573386884 35.620287468421736 C 0.0 **** -0.24
27822 H 35.923020548042615 48.703376667619466 35.56490161081382 H 0.0 **** 0.06
27823 H 34.4726734426869 49.25123676306751 36.44032630493393 H 0.0 **** 0.06
27824 H 34.600890220674245 49.5022227000631 34.68197014306685 H 0.0 **** 0.06
27825 H 35.62540227966622 50.44335525637125 35.79218239243505 H 0.0 **** 0.06
27826 C 66.77816755443905 32.16512036992671 37.845719696481844 C 0.0 **** -0.24
27827 H 67.48711050878626 32.97696169595352 37.68168931414993 H 0.0 **** 0.06
27828 H 66.39898468363225 32.21535036079072 38.866769514241504 H 0.0 **** 0.06
27829 H 67.27740485202838 31.210308445576914 37.68919638698843 H 0.0 **** 0.06
27830 H 65.94841484384443 32.26136405801694 37.14562186804764 H 0.0 **** 0.06
27831 C 91.27116302485425 49.19608193178266 49.57342013171228 C 0.0 **** -0.24
27832 H 91.65522339486276 48.1935810561907 49.381427714398995 H 0.0 **** 0.06
27833 H 90.21312644780133 49.135111687926795 49.829540528746605 H 0.0 **** 0.06
27834 H 91.3940950344707 49.809224309288616 48.68094744023031 H 0.0 **** 0.06
27835 H 91.82146710437331 49.642364102720514 50.40148474903691 H 0.0 **** 0.06
27836 C 6.003741011399143 10.952891111319374 92.37265680564983 C 0.0 **** -0.24
27837 H 5.530422262533932 11.873811389203823 92.03357047911814 H 0.0 **** 0.06
27838 H 6.305591089489667 10.361165174957847 91.50863694581093 H 0.0 **** 0.06
27839 H 5.297797199577872 10.381769539966626 92.97588221364569 H 0.0 **** 0.06
27840 H 6.880829682756769 11.195575759423733 92.97197055619145 H 0.0 **** 0.06
27841 C 85.56446631090074 66.97941628475854 49.791670509228396 C 0.0 **** -0.24
27842 H 86.27776454884696 67.80345961274412 49.75816445099947 H 0.0 **** 0.06
27843 H 85.84873921244883 66.28582509622049 50.58402248974332 H 0.0 **** 0.06
27844 H 85.56593573109251 66.45817208975944 48.83437550757435 H 0.0 **** 0.06
27845 H 84.56668756241464 67.37012364785204 49.990752655045824 H 0.0 **** 0.06
27846 C 95.42469097030346 100.34011884073817 26.721961546516305 C 0.0 **** -0.24
27847 H 95.45025907296133 100.9571346372548 27.619726619169448 H 0.0 **** 0.06
27848 H 94.63698615355912 100.6979128256884 26.058846185337615 H 0.0 **** 0.06
27849 H 95.22588946850243 99.30472234402492 26.997993116866546 H 0.0 **** 0.06
27850 H 96.38613277550053 100.40233996929601 26.21100592711587 H 0.0 **** 0.06
27851 C 73.46348892287247 44.47340829687556 102.78856468494817 C 0.0 **** -0.24
27852 H 73.78498991334374 43.448854967107195 102.97396139462418 H 0.0 **** 0.06
27853 H 72.93846910446959 44.522712961430955 101.83463825843643 H 0.0 **** 0.06
27854 H 74.33389718894458 45.128369545667965 102.75950329380427 H 0.0 **** 0.06
27855 H 72.79521082189783 44.79359414731488 103.58790553105237 H 0.0 **** 0.06
27856 C 45.30145129172104 3.9150106817685497 89.97537937144608 C 0.0 **** -0.24
27857 H 44.67665601849177 4.698230790017149 89.54668193863415 H 0.0 **** 0.06
27858 H 44.69276957609014 3.032546380491709 90.17186779627201 H 0.0 **** 0.06
27859 H 45.739509017854004 4.270235518886722 90.90891256112911 H 0.0 **** 0.06
27860 H 46.09634800540613 3.6604062479320447 89.27496796464368 H 0.0 **** 0.06
27861 C 60.25893531056587 72.40316814206847 21.187692796887056 C 0.0 **** -0.24
27862 H 59.78944457470174 72.66585961592122 22.136216959090625 H 0.0 **** 0.06
27863 H 61.19553862550821 71.87812349366172 21.37866088064281 H 0.0 **** 0.06
27864 H 60.45961476480277 73.31014955012907 20.618127325821884 H 0.0 **** 0.06
27865 H 59.589547307507836 71.757592145492 20.61901298204064 H 0.0 **** 0.06
27866 C 93.5097512383125 81.91445316342026 110.96256011387811 C 0.0 **** -0.24
27867 H 93.8022261047804 82.77110550438204 111.57018963719683 H 0.0 **** 0.06
27868 H 93.03509553628652 81.16466015206242 111.59556311448274 H 0.0 **** 0.06
27869 H 94.39385460796194 81.48499474554751 110.48975235707192 H 0.0 **** 0.06
27870 H 92.80766853177408 82.23740301839541 110.19381265275516 H 0.0 **** 0.06
27871 C 56.81668887888779 105.10465451658126 57.267113500007554 C 0.0 **** -0.24
27872 H 55.763928369704274 105.14821384418036 56.989669393005755 H 0.0 **** 0.06
27873 H 56.904872329070315 104.8049463048805 58.31194847431061 H 0.0 **** 0.06
27874 H 57.26854901837177 106.0872858465043 57.131546267547634 H 0.0 **** 0.06
27875 H 57.32941074727117 104.37945567808964 56.635883532732095 H 0.0 **** 0.06
27876 C 10.58011374151637 9.826352802907493 35.5193101203713 C 0.0 **** -0.24
27877 H 10.707918660650268 9.800409290778958 36.601167406683885 H 0.0 **** 0.06
27878 H 9.991376025054063 8.964758509877015 35.20336771524063 H 0.0 **** 0.06
27879 H 11.557488495886108 9.794866170702932 35.037455795751555 H 0.0 **** 0.06
27880 H 10.064473963381456 10.743592099205742 35.236331258774044 H 0.0 **** 0.06
27881 C 76.45177447202721 51.49420105908749 103.38813158088846 C 0.0 **** -0.24
27882 H 76.4552906039037 51.71792252148272 102.32086179682412 H 0.0 **** 0.06
27883 H 75.89644567275408 50.57249077651418 103.56335572329326 H 0.0 **** 0.06
27884 H 75.97704846612882 52.313068664289545 103.92919394850762 H 0.0 **** 0.06
27885 H 77.47684167427374 51.37297025951995 103.73718840766634 H 0.0 **** 0.06
27886 C 40.285042087664806 75.63337897562721 60.5307255031438 C 0.0 **** -0.24
27887 H 39.49686352504597 74.92237698208581 60.77845137816763 H 0.0 **** 0.06
27888 H 41.25775020846484 75.15664177815233 60.657741365753225 H 0.0 **** 0.06
27889 H 40.21431672546319 76.49846966935922 61.190505343681934 H 0.0 **** 0.06
27890 H 40.170295729193356 75.95603383321648 59.4958687442616 H 0.0 **** 0.06
27891 C 35.13862147674602 93.40022685677053 93.80311207990093 C 0.0 **** -0.24
27892 H 34.73417196930026 93.95856777448589 92.95947510502072 H 0.0 **** 0.06
27893 H 35.24005086225808 92.35010868748248 93.52875408080536 H 0.0 **** 0.06
27894 H 34.46347802212536 93.49011011531519 94.65445615736098 H 0.0 **** 0.06
27895 H 36.11563996372971 93.80294141205496 94.06988771977524 H 0.0 **** 0.06
27896 C 50.26127089036567 52.54830819145744 102.50725788481276 C 0.0 **** -0.24
27897 H 50.91297351399008 53.3691354605937 102.20578857379067 H 0.0 **** 0.06
27898 H 49.49546919060265 52.39513579211325 101.74573213953681 H 0.0 **** 0.06
27899 H 49.78551757936286 52.79315709812772 103.45722326579477 H 0.0 **** 0.06
27900 H 50.85079839778681 51.639276438850544 102.61893098442283 H 0.0 **** 0.06
27901 C 46.36861727849279 47.00470810871539 86.51815063017727 C 0.0 **** -0.24
27902 H 47.389737162416935 47.3691086646094 86.62818597750913 H 0.0 **** 0.06
27903 H 46.37310892534268 45.914698894268525 86.48831474799198 H 0.0 **** 0.06
27904 H 45.942912813258886 47.3923338287876 85.59308287615133 H 0.0 **** 0.06
27905 H 45.76934833423766 47.34360758637817 87.36388660021953 H 0.0 **** 0.06
27906 C 50.62095788105184 90.56442870791795 16.140994897242535 C 0.0 **** -0.24
27907 H 49.579219367397336 90.44738615398668 16.437978471809572 H 0.0 **** 0.06
27908 H 51.26981982296292 90.23217156532172 16.951631552303795 H 0.0 **** 0.06
27909 H 50.821262697252536 91.61381492476875 15.923254284118187 H 0.0 **** 0.06
27910 H 50.81491831081848 89.96569339303778 15.250619241785245 H 0.0 **** 0.06
27911 C 95.91667391603147 24.55531190704997 81.84487297481402 C 0.0 **** -0.24
27912 H 95.57833028053179 24.559114572181016 80.80848765016432 H 0.0 **** 0.06
27913 H 95.2554858807774 23.92585356197486 82.43951816353797 H 0.0 **** 0.06
27914 H 95.89972454376178 25.573046135659638 82.2356506439323 H 0.0 **** 0.06
27915 H 96.9329800403913 24.16523400528129 81.89301276627035 H 0.0 **** 0.06
27916 C 20.410948033512128 5.430240263826761 4.83456360065302 C 0.0 **** -0.24
27917 H 20.615700535941286 4.724691256762355 4.028488244844947 H 0.0 **** 0.06
27918 H 20.83418097207365 6.402412220129406 4.581541929682269 H 0.0 **** 0.06
27919 H 20.861276406533847 5.0666986118705495 5.75748566472641 H 0.0 **** 0.06
27920 H 19.333147722030095 5.525705894002442 4.968164576984785 H 0.0 **** 0.06
27921 C 102.08040284318926 68.25755476150508 60.61598030585162 C 0.0 **** -0.24
27922 H 102.27866067743037 69.3237083754579 60.504285574976194 H 0.0 **** 0.06
27923 H 102.24913468065483 67.96349480427475 61.65191789982964 H 0.0 **** 0.06
27924 H 102.74883700742157 67.69473087291843 59.96389022956873 H 0.0 **** 0.06
27925 H 101.04579745926853 68.05031934731272 60.34273578615827 H 0.0 **** 0.06
27926 C 16.351908881317968 109.8136732054744 45.016521619249744 C 0.0 **** -0.24
27927 H 17.263967258585637 109.90422965423497 45.605156775566584 H 0.0 **** 0.06
27928 H 15.972688209390384 108.79385359815619 45.08837627336057 H 0.0 **** 0.06
27929 H 16.567140631336542 110.0477876862272 43.97364476708623 H 0.0 **** 0.06
27930 H 15.602332304273176 110.50758150412945 45.39781763971812 H 0.0 **** 0.06
27931 C 88.57205923253414 89.86010796058008 42.027012912108006 C 0.0 **** -0.24
27932 H 88.07481329717038 88.89024301560059 42.04250031364302 H 0.0 **** 0.06
27933 H 89.63629902975498 89.72593804748587 42.22225254313713 H 0.0 **** 0.06
27934 H 88.13976650004221 90.50282995741992 42.79326402080741 H 0.0 **** 0.06
27935 H 88.43712597457699 90.32107168401043 41.04783829577525 H 0.0 **** 0.06
27936 C 9.328881046226087 13.890104351009171 24.637953919674686 C 0.0 **** -0.24
27937 H 10.377553224171237 13.594534303226396 24.656129733792426 H 0.0 **** 0.06
27938 H 8.729811538032237 13.07946851919067 24.223633224973298 H 0.0 **** 0.06
27939 H 9.213289695744038 14.781256160755845 24.021352379665842 H 0.0 **** 0.06
27940 H 8.996152978906792 14.10587626840271 25.65331538708446 H 0.0 **** 0.06
27941 C 31.639833457538657 63.13761043806835 5.011278667643182 C 0.0 **** -0.24
27942 H 30.582606564505625 63.20558810042965 4.750748738097457 H 0.0 **** 0.06
27943 H 32.21500379670738 63.807491644898676 4.371616510767581 H 0.0 **** 0.06
27944 H 31.983014981208385 62.11392238677061 4.8685954877651625 H 0.0 **** 0.06
27945 H 31.774730397029373 63.424503336805685 6.054364327816103 H 0.0 **** 0.06
27946 C 1.3555758878137567 35.75342642104812 109.50721679930413 C 0.0 **** -0.24
27947 H 1.0743278508070375 34.70453125742114 109.40529057088511 H 0.0 **** 0.06
27948 H 2.323373022515426 35.82184329908284 110.0058442462776 H 0.0 **** 0.06
27949 H 0.6039206561986248 36.27437862376485 110.09995669430776 H 0.0 **** 0.06
27950 H 1.4212445109458827 36.209771258866226 108.51966356283495 H 0.0 **** 0.06
27951 C 37.15658609965982 83.18445451194393 70.66591953645019 C 0.0 **** -0.24
27952 H 37.33725893955739 82.7539256427508 71.65055224624982 H 0.0 **** 0.06
27953 H 37.451192976368816 82.46947603309209 69.89733773411828 H 0.0 **** 0.06
27954 H 37.7425574935109 84.09762329208539 70.55711351813022 H 0.0 **** 0.06
27955 H 36.097054657243405 83.41774788159753 70.5609399521299 H 0.0 **** 0.06
27956 C 55.458032252122486 101.63971274395743 84.1023332376821 C 0.0 **** -0.24
27957 H 56.06744531681975 102.54327156133621 84.1095827755455 H 0.0 **** 0.06
27958 H 55.6587079553142 101.0724021332534 83.19297831471681 H 0.0 **** 0.06
27959 H 54.40329535285086 101.91226399332788 84.13569888091581 H 0.0 **** 0.06
27960 H 55.70389066093102 101.03038578799124 84.9728777665195 H 0.0 **** 0.06
27961 C 83.09900645774948 12.825743366684733 37.189729872858805 C 0.0 **** -0.24
27962 H 82.32799900766659 13.591279481704476 37.27174394732489 H 0.0 **** 0.06
27963 H 83.1895616814218 12.299145022947812 38.13999843964373 H 0.0 **** 0.06
27964 H 84.05171066255235 13.293858792769413 36.94133692423944 H 0.0 **** 0.06
27965 H 82.8262588466348 12.118298658640796 36.40661550230095 H 0.0 **** 0.06
27966 C 55.21353819576585 90.4854781181337 6.8739966037783145 C 0.0 **** -0.24
27967 H 54.59115934384535 90.19340191242506 7.720063070765127 H 0.0 **** 0.06
27968 H 55.72912034458848 89.6087470151403 6.482818924811809 H 0.0 **** 0.06
27969 H 55.944950155185495 91.22374223020228 7.1989087338044655 H 0.0 **** 0.06
27970 H 54.58456665189171 90.91616121433111 6.094130381667034 H 0.0 **** 0.06
27971 C 13.619689659416679 111.7502347224703 2.9493814230051214 C 0.0 **** -0.24
27972 H 13.845162718082463 110.79557180039028 2.4738343595298886 H 0.0 **** 0.06
27973 H 14.484155924456445 112.41015158445319 2.8639746661574748 H 0.0 **** 0.06
27974 H 13.39015253485509 111.5860047329793 4.00255645609883 H 0.0 **** 0.06
27975 H 12.762542221707946 112.20857634648962 2.457228446268374 H 0.0 **** 0.06
27976 C 24.891057084720273 7.681156696537201 80.13399754065105 C 0.0 **** -0.24
27977 H 24.27012235575171 7.418283561115857 80.9902639435094 H 0.0 **** 0.06
27978 H 25.1758816309561 6.775388584981215 79.59981084366373 H 0.0 **** 0.06
27979 H 25.787621944193063 8.196684638061356 80.48037719879252 H 0.0 **** 0.06
27980 H 24.32989441435899 8.336541585516883 79.46706759061266 H 0.0 **** 0.06
27981 C 107.57409583079485 108.29198924549229 23.43905593481645 C 0.0 **** -0.24
27982 H 107.19220649708095 107.60940802982171 24.19800309433228 H 0.0 **** 0.06
27983 H 107.72918110812614 109.27669401935373 23.88164664719207 H 0.0 **** 0.06
27984 H 106.854910600365 108.36886763145603 22.62444337044454 H 0.0 **** 0.06
27985 H 108.52064081290911 107.91370548426971 23.053912660658398 H 0.0 **** 0.06
27986 C 16.086950360252786 13.217916857233451 93.43608342364692 C 0.0 **** -0.24
27987 H 15.058826307808431 12.8934812888712 93.27803331239451 H 0.0 **** 0.06
27988 H 16.425505787627685 13.786177425480535 92.56888066609508 H 0.0 **** 0.06
27989 H 16.726464452269795 12.345863707554244 93.57275976328015 H 0.0 **** 0.06
27990 H 16.135824907525716 13.848287929188604 94.3247858834109 H 0.0 **** 0.06
27991 C 79.9931376743352 59.28226316179996 66.47423042396491 C 0.0 **** -0.24
27992 H 80.80543211731623 59.46891050414962 65.77176270355781 H 0.0 **** 0.06
27993 H 79.5128514234078 60.226824280690124 66.73188691051999 H 0.0 **** 0.06
27994 H 80.39246986541693 58.82040164684895 67.37697020388953 H 0.0 **** 0.06
27995 H 79.26289773961926 58.61564797503277 66.01687372901338 H 0.0 **** 0.06
27996 C 62.036491141613034 77.78436411137119 5.6958524557000345 C 0.0 **** -0.24
27997 H 63.00999326147528 77.75721850976345 5.20711010658043 H 0.0 **** 0.06
27998 H 62.088663979982705 78.42845149066903 6.573846107047132 H 0.0 **** 0.06
27999 H 61.75334268849502 76.77667410322829 5.999698109204715 H 0.0 **** 0.06
28000 H 61.292638877234644 78.17682130829186 5.001605658097844 H 0.0 **** 0.06
28001 C 32.42452047786921 83.42672487364996 27.317290431044256 C 0.0 **** -0.24
28002 H 31.57016025231826 83.08653497614074 26.73388001745724 H 0.0 **** 0.06
28003 H 33.079655844473336 84.02704574413826 26.685330034893184 H 0.0 **** 0.06
28004 H 32.974547780243654 82.56475376335763 27.694337030124046 H 0.0 **** 0.06
28005 H 32.07596425089304 84.0295219160738 28.15541669069117 H 0.0 **** 0.06
28006 C 34.19845733719315 29.09494449308921 64.09419755938933 C 0.0 **** -0.24
28007 H 34.924469934780404 29.265848835289987 63.29906371625114 H 0.0 **** 0.06
28008 H 33.20434405108986 29.372297675133886 63.74247121463375 H 0.0 **** 0.06
28009 H 34.45969931907592 29.700852854005362 64.96112432014701 H 0.0 **** 0.06
28010 H 34.205162911503635 28.040870726031983 64.37168795457958 H 0.0 **** 0.06
28011 C 63.91260398698097 48.47418074377235 12.485495258699672 C 0.0 **** -0.24
28012 H 63.59041467575173 48.0192236964258 13.421535566532924 H 0.0 **** 0.06
28013 H 64.87797363707861 48.959685338664286 12.630643981800532 H 0.0 **** 0.06
28014 H 63.177111839314506 49.21413442227254 12.170069773402787 H 0.0 **** 0.06
28015 H 64.00491579577854 47.70367951772651 11.719731713062743 H 0.0 **** 0.06
28016 C 109.12938358349226 47.976153250353775 31.189166362576316 C 0.0 **** -0.24
28017 H 109.16855649819956 48.96763433023284 30.738809725781806 H 0.0 **** 0.06
28018 H 108.72072585315851 48.05064041776879 32.19696491237775 H 0.0 **** 0.06
28019 H 110.13546294283526 47.55832818888115 31.235209551806122 H 0.0 **** 0.06
28020 H 108.4941620681262 47.328094813601865 30.58600947397443 H 0.0 **** 0.06
28021 C 100.26765572731676 32.24528438912225 57.69934656795308 C 0.0 **** -0.24
28022 H 99.25944886457904 32.03696063038453 57.34280840645299 H 0.0 **** 0.06
28023 H 100.99326634413183 31.8121009625296 57.01009421561565 H 0.0 **** 0.06
28024 H 100.40012644697788 31.808827749106655 58.68940843913219 H 0.0 **** 0.06
28025 H 100.41753758708734 33.324143246735304 57.75544884225601 H 0.0 **** 0.06
28026 C 13.186852374902514 75.26042509455678 44.89430376151765 C 0.0 **** -0.24
28027 H 13.806207528811342 76.12132193679318 45.14515667779091 H 0.0 **** 0.06
28028 H 13.320428594742168 75.01281390647378 43.84060334939437 H 0.0 **** 0.06
28029 H 12.140408617074911 75.49817052951698 45.08139965342565 H 0.0 **** 0.06
28030 H 13.482203914495699 74.4098754402861 45.50851067525488 H 0.0 **** 0.06
28031 C 94.45796487653271 62.39695279568159 54.75133327337721 C 0.0 **** -0.24
28032 H 95.06830824824078 63.27990487018811 54.93708016743716 H 0.0 **** 0.06
28033 H 94.94781143542204 61.766619089110655 54.00864208600632 H 0.0 **** 0.06
28034 H 93.47987573930362 62.70201965693904 54.38128306360153 H 0.0 **** 0.06
28035 H 94.3372784836991 61.83748114914608 55.679226956394984 H 0.0 **** 0.06
28036 C 14.710404784891864 7.181938176647293 85.03667730115873 C 0.0 **** -0.24
28037 H 14.978110621514674 6.388859996952746 84.33877691209793 H 0.0 **** 0.06
28038 H 13.643006200728934 7.391178564171028 84.95531265636262 H 0.0 **** 0.06
28039 H 15.276340289536535 8.08203292535562 84.79965672347967 H 0.0 **** 0.06
28040 H 14.941842933144756 6.863908751207788 86.0536562124444 H 0.0 **** 0.06
28041 C 17.52912768227543 0.8259080781676431 90.37704619294576 C 0.0 **** -0.24
28042 H 18.16949138047346 -0.05127020738856913 90.4628885457351 H 0.0 **** 0.06
28043 H 16.728534837848997 0.7645929424956819 91.11502519700588 H 0.0 **** 0.06
28044 H 17.099016292459794 0.8642110431175354 89.3761748371646 H 0.0 **** 0.06
28045 H 18.11854385740645 1.725056697884085 90.55434164437534 H 0.0 **** 0.06
28046 C 97.84933847878673 28.861833744491918 74.41879496615456 C 0.0 **** -0.24
28047 H 98.78232146780812 28.947156893397192 73.86185593742937 H 0.0 **** 0.06
28048 H 97.83813477173655 27.919097932508038 74.96527554427718 H 0.0 **** 0.06
28049 H 97.00881293771772 28.89142952677426 73.72549395662776 H 0.0 **** 0.06
28050 H 97.7700839852628 29.69155099476785 75.12192827969585 H 0.0 **** 0.06
28051 C 3.873763197202635 103.30907789929853 5.744592887864394 C 0.0 **** -0.24
28052 H 4.0025867420488765 102.22704832273473 5.780771789152556 H 0.0 **** 0.06
28053 H 2.835946655995329 103.5428660894191 5.502974569166225 H 0.0 **** 0.06
28054 H 4.528030190867042 103.7281858755884 4.9811569004169645 H 0.0 **** 0.06
28055 H 4.125527107345803 103.7364902585633 6.714973213210083 H 0.0 **** 0.06
28056 C 70.18975703524322 66.3371704882511 97.76486239051235 C 0.0 **** -0.24
28057 H 70.32339230614386 66.2364172305821 98.8424480471632 H 0.0 **** 0.06
28058 H 69.26178569700735 65.84957489259568 97.46623031272844 H 0.0 **** 0.06
28059 H 71.02899225012422 65.86879321117652 97.25068113007103 H 0.0 **** 0.06
28060 H 70.14707636739135 67.39420067552737 97.50308785316514 H 0.0 **** 0.06
28061 C 86.9482969807957 94.38964711056016 71.82526726211438 C 0.0 **** -0.24
28062 H 87.38787033892268 93.39695370721824 71.72664436478792 H 0.0 **** 0.06
28063 H 87.62036345737525 95.12945994389696 71.38921901831054 H 0.0 **** 0.06
28064 H 86.79377667195857 94.6148118054779 72.88013297844464 H 0.0 **** 0.06
28065 H 85.99141304608139 94.41610203623924 71.30390878246445 H 0.0 **** 0.06
28066 C 18.539031162095085 90.09099433901062 71.48978278543927 C 0.0 **** -0.24
28067 H 18.763597923652526 91.09949035712401 71.14307409214683 H 0.0 **** 0.06
28068 H 18.490870422372524 89.41630921573682 70.63510804566192 H 0.0 **** 0.06
28069 H 17.580006008289274 90.09083830396375 72.00809942181559 H 0.0 **** 0.06
28070 H 19.32081336165487 89.75951567411195 72.1720985426769 H 0.0 **** 0.06
28071 C 42.424075233188404 83.82991640488501 71.88997635245164 C 0.0 **** -0.24
28072 H 42.69627847192774 84.47457313749908 71.05411362611295 H 0.0 **** 0.06
28073 H 42.78955856326169 84.26712584531839 72.81950002979792 H 0.0 **** 0.06
28074 H 42.871436407489284 82.84583392932535 71.74930274382359 H 0.0 **** 0.06
28075 H 41.33948101683046 83.73274420330438 71.93543319632712 H 0.0 **** 0.06
28076 C 12.280076848254538 18.652512885520622 51.880351951859474 C 0.0 **** -0.24
28077 H 12.915267963706071 17.773534772727913 51.996016078229815 H 0.0 **** 0.06
28078 H 12.268965061680731 18.95597825643847 50.83309661761453 H 0.0 **** 0.06
28079 H 12.671179155293629 19.46544989639179 52.4912993585453 H 0.0 **** 0.06
28080 H 11.265813820174245 18.41175010489752 52.201101490663014 H 0.0 **** 0.06
28081 C 77.53492273050387 13.852868102323185 101.12923871700846 C 0.0 **** -0.24
28082 H 78.32917104972495 13.146970105156242 101.37338222033432 H 0.0 **** 0.06
28083 H 77.34648455838308 13.829680803128724 100.05596997823324 H 0.0 **** 0.06
28084 H 77.83931026457643 14.857744636106105 101.42315845300405 H 0.0 **** 0.06
28085 H 76.62604813572503 13.576975406709025 101.66395507223348 H 0.0 **** 0.06
28086 C 109.7935487881112 76.10076182065862 23.12407553902398 C 0.0 **** -0.24
28087 H 110.68112221828184 75.79651671862672 23.677902818456097 H 0.0 **** 0.06
28088 H 109.66489245396346 77.17990190033322 23.2075538216192 H 0.0 **** 0.06
28089 H 108.91784318994578 75.59706027681821 23.535727041204716 H 0.0 **** 0.06
28090 H 109.90898469018995 75.82848971511444 22.075034150972524 H 0.0 **** 0.06
28091 C 69.64937488409942 46.39956100092881 56.53418885408594 C 0.0 **** -0.24
28092 H 69.77050427629257 47.458685567270464 56.761829405555254 H 0.0 **** 0.06
28093 H 69.60272285979937 46.26359440258058 55.45404764997218 H 0.0 **** 0.06
28094 H 68.7280900169851 46.034541177190505 56.987463688325846 H 0.0 **** 0.06
28095 H 70.49623062208997 45.843256313052706 56.93599084755505 H 0.0 **** 0.06
28096 C 61.825396406721126 3.896853577586711 67.57028947351401 C 0.0 **** -0.24
28097 H 62.805920606974155 3.998404962790346 68.03679249624827 H 0.0 **** 0.06
28098 H 61.749964429553955 2.918840104797198 67.09433560043848 H 0.0 **** 0.06
28099 H 61.697503394374195 4.677145834372027 66.8210874506079 H 0.0 **** 0.06
28100 H 61.0504178285274 3.992141923078961 68.3304563575081 H 0.0 **** 0.06
28101 C 39.13176794340441 112.68130720732601 27.620747834751036 C 0.0 **** -0.24
28102 H 38.57809403930057 111.74740478550268 27.52745353632595 H 0.0 **** 0.06
28103 H 40.13764631811381 112.47299575376962 27.98387228076391 H 0.0 **** 0.06
28104 H 38.61975097242558 113.33762723152182 28.325195914602567 H 0.0 **** 0.06
28105 H 39.18988838702052 113.16768073465602 26.647422015638845 H 0.0 **** 0.06
28106 C 37.2571042118963 75.87055490966262 11.03376145852036 C 0.0 **** -0.24
28107 H 37.06692467114722 76.88817032691665 10.692447819281796 H 0.0 **** 0.06
28108 H 38.3206006800971 75.7502244797333 11.240278388449468 H 0.0 **** 0.06
28109 H 36.9550951661673 75.16531130357333 10.258652141001647 H 0.0 **** 0.06
28110 H 36.686466674779886 75.67882385748615 11.942100799625521 H 0.0 **** 0.06
28111 C 53.732663196543925 99.99810280019261 1.317754860919976 C 0.0 **** -0.24
28112 H 52.99402522613329 99.24979136341082 1.029707371684566 H 0.0 **** 0.06
28113 H 53.42172592681889 100.47523315514115 2.2468737982661224 H 0.0 **** 0.06
28114 H 53.814919714310754 100.74878316814585 0.5324051419391793 H 0.0 **** 0.06
28115 H 54.699651081069725 99.51582973425678 1.4624771426515935 H 0.0 **** 0.06
28116 C 103.94207684045423 87.70690164540224 8.608664950901533 C 0.0 **** -0.24
28117 H 104.82621818555361 88.08281000328162 8.094149297622064 H 0.0 **** 0.06
28118 H 104.21600358478406 87.38043419931932 9.612270240320198 H 0.0 **** 0.06
28119 H 103.52812784412959 86.8664728669701 8.05266403966793 H 0.0 **** 0.06
28120 H 103.19659310227937 88.49988688567637 8.675961690291055 H 0.0 **** 0.06
28121 C 84.82420426070209 92.96501375703002 52.62896073098473 C 0.0 **** -0.24
28122 H 85.78882647968015 92.55716532119015 52.930359127838955 H 0.0 **** 0.06
28123 H 84.5303599430344 92.53140004984118 51.67267724705245 H 0.0 **** 0.06
28124 H 84.90353061388643 94.04761383170768 52.52808546265239 H 0.0 **** 0.06
28125 H 84.0757278377676 92.72371779984195 53.38289748208456 H 0.0 **** 0.06
28126 C 19.413161021699352 26.669531957093795 76.3150326019391 C 0.0 **** -0.24
28127 H 18.848840157508505 26.737701747768824 77.24491442969699 H 0.0 **** 0.06
28128 H 20.051269263752317 25.784847223128736 76.3409424411615 H 0.0 **** 0.06
28129 H 20.03171587773079 27.55989272834252 76.20010217587614 H 0.0 **** 0.06
28130 H 18.72290536931689 26.595488576086012 75.47543922959983 H 0.0 **** 0.06
28131 C 73.9154039887714 16.14567055750706 99.240614661334 C 0.0 **** -0.24
28132 H 74.01643808015922 16.020476420145883 98.16280581979333 H 0.0 **** 0.06
28133 H 73.90543312796615 17.208264747748785 99.48413792835936 H 0.0 **** 0.06
28134 H 74.7544182180336 15.664344231522989 99.74344017840443 H 0.0 **** 0.06
28135 H 72.9824009558576 15.688465837087733 99.57315291163209 H 0.0 **** 0.06
28136 C 15.109022129080955 101.3104429037277 55.98151957684147 C 0.0 **** -0.24
28137 H 15.682079673740986 100.65792393439241 55.32260725458601 H 0.0 **** 0.06
28138 H 14.246814579372852 101.70323842498965 55.44154987869533 H 0.0 **** 0.06
28139 H 15.738491864561382 102.136044576344 56.31156509642298 H 0.0 **** 0.06
28140 H 14.768389424576014 100.74317298327074 56.84791360278904 H 0.0 **** 0.06
28141 C 63.75219176945495 59.45035316150429 27.939327088155295 C 0.0 **** -0.24
28142 H 63.344243189267786 59.79913712584662 28.88867642419271 H 0.0 **** 0.06
28143 H 64.57468982449473 58.760226310487944 28.1296697267054 H 0.0 **** 0.06
28144 H 64.11727618213638 60.301918908840754 27.365969880571754 H 0.0 **** 0.06
28145 H 62.97232037935203 58.93967310309876 27.374924881538163 H 0.0 **** 0.06
28146 C 108.90036632212257 46.10123200842652 52.78922929054053 C 0.0 **** -0.24
28147 H 108.58543891529335 46.809428963450415 52.02239539189149 H 0.0 **** 0.06
28148 H 109.50909898196412 45.32084135611649 52.33374020416997 H 0.0 **** 0.06
28149 H 108.02147863718487 45.65408523200949 53.252638971363304 H 0.0 **** 0.06
28150 H 109.48519382631724 46.62312028681572 53.54694086393437 H 0.0 **** 0.06
28151 C 108.8655144567228 104.64598973210241 96.4775014180868 C 0.0 **** -0.24
28152 H 109.57222938225316 105.37674777896734 96.08482972991251 H 0.0 **** 0.06
28153 H 109.38892372309519 103.71486643196232 96.69352341181028 H 0.0 **** 0.06
28154 H 108.08497790861755 104.46197039893372 95.73849733446852 H 0.0 **** 0.06
28155 H 108.41586816199377 105.03119243390051 97.39258309121922 H 0.0 **** 0.06
28156 C 14.199113065406394 82.29473140134758 109.43945306484135 C 0.0 **** -0.24
28157 H 13.546048794767998 81.45748384063634 109.19299824816596 H 0.0 **** 0.06
28158 H 14.086094104516775 83.07659867176662 108.68719593981612 H 0.0 **** 0.06
28159 H 15.234551727923488 81.95534130271358 109.45877930489415 H 0.0 **** 0.06
28160 H 13.92758257099375 82.69062692788191 110.41877956507165 H 0.0 **** 0.06
28161 C 33.54567972392874 78.75255870331381 25.83342080963081 C 0.0 **** -0.24
28162 H 33.487394367180684 78.3028173950195 26.82465840423984 H 0.0 **** 0.06
28163 H 34.57072660014086 78.69035855253625 25.467066510645566 H 0.0 **** 0.06
28164 H 33.24167523637135 79.79726725067198 25.89004811872485 H 0.0 **** 0.06
28165 H 32.88327704282585 78.21836866728381 25.152832064662306 H 0.0 **** 0.06
28166 C 91.1548057974037 1.4904338686608867 58.66721066305385 C 0.0 **** -0.24
28167 H 90.59089490604055 2.1655303160001154 59.31119645781118 H 0.0 **** 0.06
28168 H 92.18254723692348 1.8451391495745497 58.58150674688375 H 0.0 **** 0.06
28169 H 90.6958222619075 1.4630715884657093 57.67893094051922 H 0.0 **** 0.06
28170 H 91.1499930408591 0.4897987189227706 59.09852896817449 H 0.0 **** 0.06
28171 C 89.3198428743402 52.41355269159113 85.30698377288189 C 0.0 **** -0.24
28172 H 90.12844355922243 52.34785708531834 84.58028624034046 H 0.0 **** 0.06
28173 H 89.41553130858517 51.6040799450033 86.03078830224578 H 0.0 **** 0.06
28174 H 88.36171963252838 52.332130145731945 84.79368696568386 H 0.0 **** 0.06
28175 H 89.37328919601703 53.372269012006335 85.82432793733437 H 0.0 **** 0.06
28176 C 51.484070039127175 57.13359411281408 39.73798123175395 C 0.0 **** -0.24
28177 H 52.03339075559091 57.56805411106353 40.573730416718035 H 0.0 **** 0.06
28178 H 52.0201137120945 56.26051545924739 39.365447674351714 H 0.0 **** 0.06
28179 H 51.39194755272808 57.87136607696931 38.94148621304745 H 0.0 **** 0.06
28180 H 50.49072680967045 56.83437554027819 40.072988524451496 H 0.0 **** 0.06
28181 C 91.37020200935925 5.012028640442267 22.97474045686664 C 0.0 **** -0.24
28182 H 91.91528749525435 5.130019258199468 22.0381800361819 H 0.0 **** 0.06
28183 H 90.59272737039183 5.773416202600984 23.040517188717416 H 0.0 **** 0.06
28184 H 92.05877326534988 5.122498612750704 23.81238858936203 H 0.0 **** 0.06
28185 H 90.91426567086825 4.02291912133839 23.007248257135615 H 0.0 **** 0.06
28186 C 57.43438368564395 82.9544932433196 74.5105865030906 C 0.0 **** -0.24
28187 H 56.914940176855026 82.97291065860423 75.46800310845703 H 0.0 **** 0.06
28188 H 58.126069929629665 83.79438148723403 74.4555392729844 H 0.0 **** 0.06
28189 H 56.70663992837632 83.02833753490603 73.70206472106901 H 0.0 **** 0.06
28190 H 57.988454924671174 82.0203759934185 74.41644600205194 H 0.0 **** 0.06
28191 C 111.23757574365263 52.89869232303195 75.90835555096561 C 0.0 **** -0.24
28192 H 111.19381276446829 52.22779894242224 75.04995511618799 H 0.0 **** 0.06
28193 H 111.97539946542412 52.52871027412162 76.62181119277258 H 0.0 **** 0.06
28194 H 110.25920549314489 52.94203948291614 76.38652816162647 H 0.0 **** 0.06
28195 H 111.5233517083499 53.89695927986868 75.57567910965571 H 0.0 **** 0.06
28196 C 65.77445432382456 61.559206936768526 34.07634198019403 C 0.0 **** -0.24
28197 H 65.86729429105793 60.47400676698094 34.03624572823523 H 0.0 **** 0.06
28198 H 65.41288825198785 61.85690179110495 35.06070276331528 H 0.0 **** 0.06
28199 H 65.06850074955975 61.89038253441128 33.31464606228948 H 0.0 **** 0.06
28200 H 66.74723848605754 62.01430559384438 33.891800547463816 H 0.0 **** 0.06
28201 C 67.57438335877765 60.84521633349701 1.2881637736221592 C 0.0 **** -0.24
28202 H 67.85742484314983 61.75944343333765 0.7646278855139599 H 0.0 **** 0.06
28203 H 67.34552191338022 60.06634835091094 0.5605096549718382 H 0.0 **** 0.06
28204 H 66.69705595545233 61.03730066222414 1.9047061886787446 H 0.0 **** 0.06
28205 H 68.40034177881128 60.5205903574703 1.921033471415626 H 0.0 **** 0.06
28206 C 74.9818905767811 67.37351781026464 39.13509208990703 C 0.0 **** -0.24
28207 H 75.36480334867878 67.19092114308575 38.13109575098136 H 0.0 **** 0.06
28208 H 74.0103430715464 67.86418688213195 39.06887464376746 H 0.0 **** 0.06
28209 H 75.6761114180864 68.01489881689955 39.67757360013047 H 0.0 **** 0.06
28210 H 74.87509626602588 66.4251615052768 39.66099763432095 H 0.0 **** 0.06
28211 C 76.19209566335095 3.5501471973581715 83.5798215955848 C 0.0 **** -0.24
28212 H 75.69431803907977 3.6866403595481074 82.61892017697431 H 0.0 **** 0.06
28213 H 75.73087810840016 2.7181133492421736 84.11195450753311 H 0.0 **** 0.06
28214 H 76.0932796013407 4.460050984889932 84.17158832349196 H 0.0 **** 0.06
28215 H 77.24742849401449 3.3366589979429193 83.41416013921304 H 0.0 **** 0.06
28216 C 5.418662592766722 0.17172229551867702 58.576863473684135 C 0.0 **** -0.24
28217 H 4.616417286961649 -0.5658994256146457 58.564778771015476 H 0.0 **** 0.06
28218 H 5.370292424755604 0.7749979330790211 57.669513318199726 H 0.0 **** 0.06
28219 H 6.380977178993248 -0.33797893915411237 58.62393443951759 H 0.0 **** 0.06
28220 H 5.305867989612366 0.8165873966689503 59.448865089040815 H 0.0 **** 0.06
28221 C 111.01805545906649 57.87593628714098 100.3463111751719 C 0.0 **** -0.24
28222 H 110.62038230421172 56.868762215738876 100.22017687606922 H 0.0 **** 0.06
28223 H 110.71845724950686 58.26553208230228 101.31967722605165 H 0.0 **** 0.06
28224 H 110.62607306912071 58.521146468034836 99.56003258423561 H 0.0 **** 0.06
28225 H 112.1053433124842 57.84724179296024 100.28527788570068 H 0.0 **** 0.06
28226 C 95.18914169697152 35.18535547284952 27.114126426780985 C 0.0 **** -0.24
28227 H 94.17371647253182 34.85205576826095 27.330495002766227 H 0.0 **** 0.06
28228 H 95.15266793536216 36.075889808841964 26.48541684435449 H 0.0 **** 0.06
28229 H 95.72716390383042 34.39400123731298 26.59214561051519 H 0.0 **** 0.06
28230 H 95.70141319496963 35.41939001082332 28.046893862257818 H 0.0 **** 0.06
28231 C 35.0476313505019 78.70724691749723 12.769399195286486 C 0.0 **** -0.24
28232 H 36.05094698468994 78.41278146712142 13.075719573899452 H 0.0 **** 0.06
28233 H 34.69754124392779 78.0394703423583 11.982589992393091 H 0.0 **** 0.06
28234 H 35.06779474481698 79.73105575966025 12.39511011597481 H 0.0 **** 0.06
28235 H 34.373938162836595 78.64662525919749 13.624058125011441 H 0.0 **** 0.06
28236 C 97.89468140209388 25.22977165690544 76.19792339811761 C 0.0 **** -0.24
28237 H 98.14935972936712 25.33430535776759 75.14308973107845 H 0.0 **** 0.06
28238 H 98.7843370713947 24.946165703056963 76.7596366748214 H 0.0 **** 0.06
28239 H 97.13220900664692 24.459497013586997 76.31218270547944 H 0.0 **** 0.06
28240 H 97.51322589529326 26.178431550003353 76.57495053973784 H 0.0 **** 0.06
28241 C 67.2946167251011 6.978925555149345 91.50630203123521 C 0.0 **** -0.24
28242 H 66.70944933501855 6.798796118080858 92.40774191543267 H 0.0 **** 0.06
28243 H 68.30778710762351 7.273130420522264 91.78324201977998 H 0.0 **** 0.06
28244 H 66.83135888379616 7.776947211554628 90.92565581700882 H 0.0 **** 0.06
28245 H 67.3301219848388 6.0682182199989825 90.90864585823462 H 0.0 **** 0.06
28246 C 21.939016013557307 81.26479096505949 95.8017333292349 C 0.0 **** -0.24
28247 H 22.697633878860856 81.92247772831854 96.22709023282789 H 0.0 **** 0.06
28248 H 22.25414865792615 80.94153146020017 94.80934271591113 H 0.0 **** 0.06
28249 H 20.994314674959853 81.80213810143277 95.72654187424442 H 0.0 **** 0.06
28250 H 21.812301043976646 80.39329354727204 96.44464778886936 H 0.0 **** 0.06
28251 C 38.35937438821301 30.24667107870814 62.2707531559762 C 0.0 **** -0.24
28252 H 38.257539420437865 29.966124117257763 63.31918266796516 H 0.0 **** 0.06
28253 H 37.45296756639772 29.9724744359578 61.731843876162934 H 0.0 **** 0.06
28254 H 39.213327680613276 29.726085268812767 61.837482373339235 H 0.0 **** 0.06
28255 H 38.51515822803415 31.323359605746127 62.197652921666396 H 0.0 **** 0.06
28256 C 34.33438834880238 7.30577826679953 60.511375001020184 C 0.0 **** -0.24
28257 H 33.58833161861256 7.898538540458871 59.9824979086419 H 0.0 **** 0.06
28258 H 33.893129886793844 6.357181083316263 60.817104845837605 H 0.0 **** 0.06
28259 H 34.67255446324927 7.851298076921285 61.3923183591462 H 0.0 **** 0.06
28260 H 35.18249774986032 7.117506631569279 59.851867825399296 H 0.0 **** 0.06
28261 C 98.70505052270005 104.40776975277805 39.31170957375534 C 0.0 **** -0.24
28262 H 99.4107139692737 105.20435577109376 39.54681633101487 H 0.0 **** 0.06
28263 H 99.10405782362292 103.79632011796068 38.50230243633186 H 0.0 **** 0.06
28264 H 97.7554434586416 104.84408724021273 39.002310398451954 H 0.0 **** 0.06
28265 H 98.54937177092145 103.7879767341031 40.194044012255915 H 0.0 **** 0.06
28266 C 16.707037865786674 67.58377117399303 50.050902483076726 C 0.0 **** -0.24
28267 H 15.669208929594106 67.84630005116168 50.25477510899901 H 0.0 **** 0.06
28268 H 16.741018326365293 66.66012619822214 49.47197696800524 H 0.0 **** 0.06
28269 H 17.237500221201742 67.44262026685459 50.99205839103257 H 0.0 **** 0.06
28270 H 17.180097356401262 68.38552927618278 49.48400298011197 H 0.0 **** 0.06
28271 C 87.04575616769125 76.15343065264148 69.68043399878425 C 0.0 **** -0.24
28272 H 86.85040664754456 75.92522571547568 68.63193290393312 H 0.0 **** 0.06
28273 H 86.11697726505619 76.0801967210017 70.24733787341347 H 0.0 **** 0.06
28274 H 87.44476547927374 77.16354529458602 69.76366425983204 H 0.0 **** 0.06
28275 H 87.77068323109768 75.44194039238039 70.07634279319262 H 0.0 **** 0.06
28276 C 43.5299049171158 108.69622470648959 87.64209632456058 C 0.0 **** -0.24
28277 H 42.968039830960606 108.95308940056711 86.74410047731783 H 0.0 **** 0.06
28278 H 43.60547005977128 109.5734027263618 88.28511269278565 H 0.0 **** 0.06
28279 H 44.52997196717814 108.363442974571 87.36287661555497 H 0.0 **** 0.06
28280 H 43.01665514940987 107.89712789478477 88.17607412847266 H 0.0 **** 0.06
28281 C 75.03266551027167 35.85889295929621 38.45462958769008 C 0.0 **** -0.24
28282 H 74.92177383887432 36.86643684370239 38.052718157932276 H 0.0 **** 0.06
28283 H 74.50261913226419 35.78605768207012 39.40369554198685 H 0.0 **** 0.06
28284 H 76.09055703901322 35.645183141298276 38.61040529769264 H 0.0 **** 0.06
28285 H 74.61669809450942 35.13890704936102 37.74887051566748 H 0.0 **** 0.06
28286 C 50.01667025699121 83.14856288973067 23.092137265860288 C 0.0 **** -0.24
28287 H 50.927207702017654 82.66041371742688 23.44018950261653 H 0.0 **** 0.06
28288 H 49.36712756387282 82.4108742795724 22.61980130943865 H 0.0 **** 0.06
28289 H 50.27293369881675 83.9232188072611 22.36920181624775 H 0.0 **** 0.06
28290 H 49.49941206325762 83.59974475466231 23.939356435138233 H 0.0 **** 0.06
28291 C 105.23086499972035 64.8731143397844 67.59989729451641 C 0.0 **** -0.24
28292 H 104.9047718145464 65.6550964336623 66.91401054086495 H 0.0 **** 0.06
28293 H 105.06330307443298 63.896794920848095 67.14400274462949 H 0.0 **** 0.06
28294 H 104.66211791808303 64.94292679981851 68.52697029635777 H 0.0 **** 0.06
28295 H 106.29216451221706 64.99772480060378 67.81372418569404 H 0.0 **** 0.06
28296 C 89.05624679569925 109.77043997566011 45.749717364586324 C 0.0 **** -0.24
28297 H 88.7300422027669 108.93217934860434 45.13368238019133 H 0.0 **** 0.06
28298 H 90.13462615565155 109.71330439564605 45.89791612555669 H 0.0 **** 0.06
28299 H 88.55443763308281 109.72768578694104 46.71686062420994 H 0.0 **** 0.06
28300 H 88.80574506771595 110.70647348055087 45.25111780765522 H 0.0 **** 0.06
28301 C 68.38899926892944 72.05660819124142 6.417801993289331 C 0.0 **** -0.24
28302 H 68.8793596203106 71.9871715412724 5.446370721710309 H 0.0 **** 0.06
28303 H 67.5921139615954 72.7988881295764 6.37064590142225 H 0.0 **** 0.06
28304 H 69.11790163069895 72.35290395830586 7.172048337683151 H 0.0 **** 0.06
28305 H 67.96767963799104 71.08655113519009 6.681946796609182 H 0.0 **** 0.06
28306 C 94.58783266461123 63.176618343385144 16.728848989953008 C 0.0 **** -0.24
28307 H 94.05725868530547 64.12861600186739 16.72053709109241 H 0.0 **** 0.06
28308 H 94.77301985092524 62.85605242345201 15.703438530390187 H 0.0 **** 0.06
28309 H 93.98202661168884 62.42839145539716 17.240295916020386 H 0.0 **** 0.06
28310 H 95.53747404069631 63.29499263565867 17.250808933965047 H 0.0 **** 0.06
28311 C 66.44769980662878 111.49182276636668 11.978725117947477 C 0.0 **** -0.24
28312 H 66.46634221563858 111.71867186059086 10.913087140743627 H 0.0 **** 0.06
28313 H 65.7559773946225 110.6697853648416 12.162822933713315 H 0.0 **** 0.06
28314 H 66.12205661313689 112.37270000225092 12.532169068208773 H 0.0 **** 0.06
28315 H 67.4473422266478 111.20546509607232 12.30597994569655 H 0.0 **** 0.06
28316 C 81.70023806298545 100.76312071451417 86.06066976438137 C 0.0 **** -0.24
28317 H 82.77169427865107 100.87108943660908 86.23194957718886 H 0.0 **** 0.06
28318 H 81.19660772081565 100.58737863006772 87.01205490005736 H 0.0 **** 0.06
28319 H 81.52293945701533 99.9192731546814 85.39464511539461 H 0.0 **** 0.06
28320 H 81.31134620571046 101.67401675993793 85.60699605681418 H 0.0 **** 0.06
28321 C 72.16126702143345 94.77485433222822 78.67702227531748 C 0.0 **** -0.24
28322 H 71.48787588225593 95.21810034850853 79.41123599277913 H 0.0 **** 0.06
28323 H 72.7276637041179 95.56398668564782 78.18247873156506 H 0.0 **** 0.06
28324 H 71.57914513785153 94.22555160617685 77.93566194639232 H 0.0 **** 0.06
28325 H 72.84797379211165 94.09266107164123 79.17752254430192 H 0.0 **** 0.06
28326 C 103.45160096283465 43.47364376035108 22.990259939224718 C 0.0 **** -0.24
28327 H 102.69220393927617 42.923713753534884 22.433642849278254 H 0.0 **** 0.06
28328 H 104.23198164848444 43.808121053645266 22.305447253998068 H 0.0 **** 0.06
28329 H 103.88745375731057 42.824404561650056 23.749112461565964 H 0.0 **** 0.06
28330 H 102.99509122265579 44.33883596637662 23.470461628364426 H 0.0 **** 0.06
28331 C 65.65389410875667 59.4505665534056 93.83986555801172 C 0.0 **** -0.24
28332 H 65.92493731802952 59.024291841497806 94.805839599324 H 0.0 **** 0.06
28333 H 66.34537974958877 60.25610794476811 93.59231338570882 H 0.0 **** 0.06
28334 H 64.6389443322866 59.843593697044035 93.88857839888581 H 0.0 **** 0.06
28335 H 65.70783461808705 58.67699334916491 93.07375765634282 H 0.0 **** 0.06
28336 C 46.78287988404496 36.45523328640354 75.19177546339577 C 0.0 **** -0.24
28337 H 46.76803506990553 35.603993059369316 75.87175343796798 H 0.0 **** 0.06
28338 H 47.79517654492737 36.85376767652568 75.13028434550017 H 0.0 **** 0.06
28339 H 46.10929802895825 37.22834487884211 75.56394940572906 H 0.0 **** 0.06
28340 H 46.45600481363209 36.13572180558117 74.202196513904 H 0.0 **** 0.06
28341 C 96.47887816578015 58.87305683189388 104.62121078950636 C 0.0 **** -0.24
28342 H 95.80820696432562 59.03261038058872 103.77787153261363 H 0.0 **** 0.06
28343 H 96.3592567965643 59.68409559179662 105.33952217428609 H 0.0 **** 0.06
28344 H 97.50918133767982 58.850919389107844 104.26648599101748 H 0.0 **** 0.06
28345 H 96.23991567821344 57.92369958322345 105.10125888585839 H 0.0 **** 0.06
28346 C 86.51059930290344 43.562017798190226 69.88272862139581 C 0.0 **** -0.24
28347 H 86.25359960583398 44.563020523535215 70.22684196990994 H 0.0 **** 0.06
28348 H 87.25300951903796 43.6306580820856 69.08810863241112 H 0.0 **** 0.06
28349 H 85.6164177907082 43.06649876040777 69.50323454555081 H 0.0 **** 0.06
28350 H 86.91993750204125 42.985903265739694 70.7135756401974 H 0.0 **** 0.06
28351 C 62.824307557145595 84.03893658555288 44.39698213393484 C 0.0 **** -0.24
28352 H 63.22804284859567 84.37559474451214 45.35169752202631 H 0.0 **** 0.06
28353 H 62.012780679892025 83.33325444656592 44.57369155120756 H 0.0 **** 0.06
28354 H 63.61181903324162 83.55075966800524 43.821803525992664 H 0.0 **** 0.06
28355 H 62.446030890423565 84.8959868745714 43.839790107268726 H 0.0 **** 0.06
28356 C 64.26305303289902 0.2124529521789924 31.84553266877805 C 0.0 **** -0.24
28357 H 63.57277753141482 1.054378071851616 31.89453463696603 H 0.0 **** 0.06
28358 H 65.28863482725382 0.5819329256453187 31.86481883471322 H 0.0 **** 0.06
28359 H 64.0936538347562 -0.3417858366069879 30.922611414662413 H 0.0 **** 0.06
28360 H 64.09662519128392 -0.44427236325486774 32.69892705356909 H 0.0 **** 0.06
28361 C 21.379225444501913 25.6586320565998 55.24150730267077 C 0.0 **** -0.24
28362 H 21.44828976417361 24.578780276911402 55.37079230888418 H 0.0 **** 0.06
28363 H 21.875520081051263 26.156013368670415 56.07453841100676 H 0.0 **** 0.06
28364 H 20.33088355616229 25.95524019980462 55.212519905372275 H 0.0 **** 0.06
28365 H 21.86327644664462 25.944039948111765 54.30737060608234 H 0.0 **** 0.06
28366 C 20.18715708071099 88.51514389131293 43.58253463880794 C 0.0 **** -0.24
28367 H 20.996775171759168 89.17576649357039 43.27299838594604 H 0.0 **** 0.06
28368 H 20.116878563585146 87.67773090259573 42.888259612194844 H 0.0 **** 0.06
28369 H 19.24827159538617 89.06743531136993 43.58180428350559 H 0.0 **** 0.06
28370 H 20.388379313682094 88.14030767673307 44.586211294645125 H 0.0 **** 0.06
28371 C 23.83213343105811 53.16512838864014 77.86555855285468 C 0.0 **** -0.24
28372 H 23.356101268466603 52.59840770684772 77.06618169315206 H 0.0 **** 0.06
28373 H 23.734304268838486 54.23175416987283 77.66244205656375 H 0.0 **** 0.06
28374 H 24.888063917588 52.90047937190576 77.91806643105093 H 0.0 **** 0.06
28375 H 23.350432836260737 52.92971748970763 78.81462738072744 H 0.0 **** 0.06
28376 C 52.866838665692995 22.63012127192025 49.29334421413898 C 0.0 **** -0.24
28377 H 52.378778734300816 22.237283318278408 48.40098482662552 H 0.0 **** 0.06
28378 H 52.761850408040864 23.71521981323342 49.31773817253736 H 0.0 **** 0.06
28379 H 53.923927475707934 22.367316174401335 49.27402974772309 H 0.0 **** 0.06
28380 H 52.400798129898284 22.199675481855177 50.180482934607255 H 0.0 **** 0.06
28381 C 75.36815447018552 64.10547873791097 109.99397516635672 C 0.0 **** -0.24
28382 H 76.17401611754832 64.48131945632687 109.36285219935728 H 0.0 **** 0.06
28383 H 74.63401005358864 63.58870172439734 109.37610473828732 H 0.0 **** 0.06
28384 H 74.89014996426107 64.94019376130714 110.50764818313834 H 0.0 **** 0.06
28385 H 75.77740471660147 63.41280512506873 110.72930494634501 H 0.0 **** 0.06
28386 C 36.295250233007664 86.02090374214623 35.376537057453035 C 0.0 **** -0.24
28387 H 36.606542248992696 87.02634992051031 35.09041165996909 H 0.0 **** 0.06
28388 H 36.47124115412271 85.33658060066423 34.547634575833655 H 0.0 **** 0.06
28389 H 35.233257367948454 86.02652996636559 35.62445429993797 H 0.0 **** 0.06
28390 H 36.86909336198585 85.69721322993738 36.244592860036505 H 0.0 **** 0.06
28391 C 13.996835524553319 51.23259714653378 106.24892715579216 C 0.0 **** -0.24
28392 H 13.245688098828907 50.69230611972303 105.67250755381073 H 0.0 **** 0.06
28393 H 14.46050660061644 51.992456976612495 105.61888379909212 H 0.0 **** 0.06
28394 H 14.758848733114462 50.53436262686178 106.59675020870063 H 0.0 **** 0.06
28395 H 13.522498919206214 51.710199768994904 107.10665610424974 H 0.0 **** 0.06
28396 C 93.60707321909223 45.8171950337261 2.755029588631487 C 0.0 **** -0.24
28397 H 93.16915047117294 45.571740725792615 1.7865305707052244 H 0.0 **** 0.06
28398 H 94.47776977072155 45.18489532282988 2.930967145126516 H 0.0 **** 0.06
28399 H 92.86915783176681 45.64750356554501 3.5395237651205775 H 0.0 **** 0.06
28400 H 93.91021170136901 46.86417059661084 2.760913466407004 H 0.0 **** 0.06
28401 C 54.449407733613725 110.92637928351365 94.44378474252707 C 0.0 **** -0.24
28402 H 54.171168667561375 110.89032992802514 95.49638522483426 H 0.0 **** 0.06
28403 H 55.5302315344706 110.81659131021101 94.34998199806631 H 0.0 **** 0.06
28404 H 54.143200340325706 111.88264738934663 94.02025233199313 H 0.0 **** 0.06
28405 H 53.953467793945464 110.11690769150499 93.90946215438478 H 0.0 **** 0.06
28406 C 76.82182703863168 67.84218766263928 94.24938571513297 C 0.0 **** -0.24
28407 H 76.7917174276939 66.85546588497758 94.71157067456721 H 0.0 **** 0.06
28408 H 77.77453525634019 67.97409204551323 93.73566524244796 H 0.0 **** 0.06
28409 H 76.71405146206274 68.6074809360887 95.0187075460781 H 0.0 **** 0.06
28410 H 76.00567073619828 67.93212640356762 93.53182431786735 H 0.0 **** 0.06
28411 C 63.16074994185629 74.05472285014224 99.74179465145201 C 0.0 **** -0.24
28412 H 63.84812632873683 74.79036680899799 99.32505730689095 H 0.0 **** 0.06
28413 H 62.74270618952675 74.4355286136225 100.67304903092108 H 0.0 **** 0.06
28414 H 63.69701235277554 73.12624141796056 99.9370514776108 H 0.0 **** 0.06
28415 H 62.355671606419456 73.8671665871897 99.03127025654166 H 0.0 **** 0.06
28416 C 5.7195161717895076 91.04048319662098 39.09582456643625 C 0.0 **** -0.24
28417 H 6.141818778502625 90.23092264776551 38.500551003748264 H 0.0 **** 0.06
28418 H 6.49982307342583 91.76492584903835 39.32795457893767 H 0.0 **** 0.06
28419 H 5.311010707613718 90.63500168698391 40.020957728480475 H 0.0 **** 0.06
28420 H 4.925120285114531 91.52967976216345 38.53139624176545 H 0.0 **** 0.06
28421 C 33.031311550163366 28.816614000505837 103.47800825006618 C 0.0 **** -0.24
28422 H 32.84381222181041 29.565903947770664 104.2468502001434 H 0.0 **** 0.06
28423 H 32.62497588922613 27.857277754990903 103.79869298323513 H 0.0 **** 0.06
28424 H 34.105076131303356 28.721482637154153 103.317384398488 H 0.0 **** 0.06
28425 H 32.55080154468659 29.12261025997381 102.54810885881534 H 0.0 **** 0.06
28426 C 40.736888281632616 18.512248489405177 112.34251880300951 C 0.0 **** -0.24
28427 H 41.59846919786558 18.17363099858689 112.91857344471612 H 0.0 **** 0.06
28428 H 41.07149175608865 18.884196184681834 111.37388427834856 H 0.0 **** 0.06
28429 H 40.22951199980446 19.310286566532707 112.88377463681621 H 0.0 **** 0.06
28430 H 40.049052130467715 17.679421282273942 112.19523105895337 H 0.0 **** 0.06
28431 C 44.67342175465504 73.94908659782459 78.64361431893741 C 0.0 **** -0.24
28432 H 45.18302620243614 74.88744691343877 78.42807886138192 H 0.0 **** 0.06
28433 H 45.27038423287672 73.36348681537632 79.34259720200058 H 0.0 **** 0.06
28434 H 44.54139023226665 73.38658628253143 77.71893410082714 H 0.0 **** 0.06
28435 H 43.69819126862811 74.15839191370395 79.08332124467515 H 0.0 **** 0.06
28436 C 3.9885988527844916 109.86972195601851 80.59339900358535 C 0.0 **** -0.24
28437 H 3.53735183972789 110.25712518706717 79.68072426480018 H 0.0 **** 0.06
28438 H 4.869846800484652 109.27926926431627 80.34109738286602 H 0.0 **** 0.06
28439 H 3.267587820849556 109.24219474328282 81.11746683287109 H 0.0 **** 0.06
28440 H 4.280116278323959 110.70120719444151 81.23526526084018 H 0.0 **** 0.06
28441 C 51.44552595493619 29.2723207246489 67.81127252572281 C 0.0 **** -0.24
28442 H 52.454969800560974 28.960853696318445 67.54233235638205 H 0.0 **** 0.06
28443 H 50.92931088908594 28.44690505513597 68.30273914468185 H 0.0 **** 0.06
28444 H 50.90231179917103 29.556958726164105 66.91058837737293 H 0.0 **** 0.06
28445 H 51.49712016460688 30.124942770932932 68.48891115666294 H 0.0 **** 0.06
28446 C 30.067621201958872 50.46797652453927 83.6232612096585 C 0.0 **** -0.24
28447 H 29.859444583201224 49.882595112991964 84.51881493989853 H 0.0 **** 0.06
28448 H 30.537676262450447 49.83074923025805 82.8740923272191 H 0.0 **** 0.06
28449 H 30.73906322816839 51.2896841987764 83.87414672756776 H 0.0 **** 0.06
28450 H 29.13430073401551 50.868877556130656 83.22599084394878 H 0.0 **** 0.06
28451 C 97.78743613372205 37.11181667925302 78.64473609624301 C 0.0 **** -0.24
28452 H 97.33418420533832 37.95750884111285 78.12683949569987 H 0.0 **** 0.06
28453 H 98.5513074928682 36.66323093853368 78.00856249904146 H 0.0 **** 0.06
28454 H 97.02049296683191 36.37020604540096 78.86995217481507 H 0.0 **** 0.06
28455 H 98.24270672902281 37.45644906003865 79.57265502517302 H 0.0 **** 0.06
28456 C 20.529310300379677 12.873656078969525 92.20906278770912 C 0.0 **** -0.24
28457 H 20.82661823410561 12.173258379483705 91.42917600615561 H 0.0 **** 0.06
28458 H 21.4164475947361 13.353738676916937 92.62420084653016 H 0.0 **** 0.06
28459 H 20.002723701956967 12.33744387511776 92.99832852048127 H 0.0 **** 0.06
28460 H 19.871437897189793 13.632183304163988 91.78452685778984 H 0.0 **** 0.06
28461 C 0.31560371339415383 92.30676146330518 58.34774657009274 C 0.0 **** -0.24
28462 H 1.1124514112542556 92.10004722637825 57.63372183116218 H 0.0 **** 0.06
28463 H -0.38729018320621833 93.01701948141084 57.912436217652726 H 0.0 **** 0.06
28464 H 0.7438263200604496 92.72894502194345 59.25662159284235 H 0.0 **** 0.06
28465 H -0.20575108388328545 91.38046878970857 58.588280194023014 H 0.0 **** 0.06
28466 C 57.61755148409907 59.66240665023565 101.03118459797003 C 0.0 **** -0.24
28467 H 58.08771867131469 60.25524265756485 100.24630390669722 H 0.0 **** 0.06
28468 H 56.589668433130726 59.99746340161494 101.17205981858206 H 0.0 **** 0.06
28469 H 58.17221718922502 59.78737694625795 101.9611054365053 H 0.0 **** 0.06
28470 H 57.62127898679665 58.61131085219034 100.74294145877263 H 0.0 **** 0.06
28471 C 79.45695441486868 79.75188855879483 77.72279950677944 C 0.0 **** -0.24
28472 H 78.38946912876466 79.95481850419262 77.64166415853083 H 0.0 **** 0.06
28473 H 79.6238765533773 78.67393870627322 77.72004201761217 H 0.0 **** 0.06
28474 H 79.83745301489762 80.17599038643328 78.65248972067786 H 0.0 **** 0.06
28475 H 79.97801882240515 80.20232442065455 76.8783317604607 H 0.0 **** 0.06
28476 C 101.22700334241685 71.64945248195744 36.47723103868941 C 0.0 **** -0.24
28477 H 100.45722679958195 72.07324056768826 37.12315146245055 H 0.0 **** 0.06
28478 H 100.85622020700185 70.72879704384584 36.026864732319495 H 0.0 **** 0.06
28479 H 102.11743607244375 71.43377465613557 37.06675792688458 H 0.0 **** 0.06
28480 H 101.47441753071271 72.36326328974869 35.69234909548953 H 0.0 **** 0.06
28481 C 38.859040730620904 92.83623916349512 33.659388465060914 C 0.0 **** -0.24
28482 H 39.20937998611653 92.3461046178104 32.750627240434994 H 0.0 **** 0.06
28483 H 37.775423007373604 92.95152670974602 33.6152990288486 H 0.0 **** 0.06
28484 H 39.3254872169565 93.81763288765563 33.745356034068266 H 0.0 **** 0.06
28485 H 39.12535520319 92.22948388259408 34.52463178279595 H 0.0 **** 0.06
28486 C 21.53356685795932 63.8724753936076 55.56785494396352 C 0.0 **** -0.24
28487 H 21.66343432885068 63.41338875689564 56.54814791952856 H 0.0 **** 0.06
28488 H 22.393153030790412 63.63806068581289 54.94056657160482 H 0.0 **** 0.06
28489 H 21.44906795725821 64.95314223325056 55.6818922209259 H 0.0 **** 0.06
28490 H 20.62690617846969 63.48420229246915 55.10343291372789 H 0.0 **** 0.06
28491 C 81.71602873666302 1.9487579095710146 59.046656982368575 C 0.0 **** -0.24
28492 H 82.66356748171054 1.956445173343269 58.50826901599197 H 0.0 **** 0.06
28493 H 80.93080166418036 1.5676430605804796 58.39260928407643 H 0.0 **** 0.06
28494 H 81.4685497872008 2.9628219512393628 59.35977301665426 H 0.0 **** 0.06
28495 H 81.8020280534198 1.307714045913258 59.92370899960525 H 0.0 **** 0.06
28496 C 71.63840951952005 39.435541782597426 3.599567182334244 C 0.0 **** -0.24
28497 H 72.2815498404309 40.26151511366672 3.9037578958432633 H 0.0 **** 0.06
28498 H 70.83502253402534 39.81495805393283 2.9679121738313885 H 0.0 **** 0.06
28499 H 71.21282868739533 38.96303669905629 4.484848657973512 H 0.0 **** 0.06
28500 H 72.22446796096222 38.70412306975072 3.0434228318861667 H 0.0 **** 0.06
28501 C 27.066659155662897 88.14493612280239 79.01552372818767 C 0.0 **** -0.24
28502 H 26.380533606287095 87.45651863850367 78.52258309951708 H 0.0 **** 0.06
28503 H 27.560635400277405 88.76409455192635 78.26745245120031 H 0.0 **** 0.06
28504 H 27.81441660448538 87.5779958288175 79.56973566275556 H 0.0 **** 0.06
28505 H 26.509657028431192 88.78085732905538 79.70404988903039 H 0.0 **** 0.06
28506 C 47.67938456762637 41.50806912323972 55.720261685154476 C 0.0 **** -0.24
28507 H 47.79291247897567 41.828454702419435 56.75619262731946 H 0.0 **** 0.06
28508 H 48.539445124797645 40.90455752502325 55.4308641132359 H 0.0 **** 0.06
28509 H 47.61516968199812 42.383920402289476 55.07431091519396 H 0.0 **** 0.06
28510 H 46.76954477277908 40.91615405702214 55.62074037930186 H 0.0 **** 0.06
28511 C 93.93850170498226 10.96800844009556 112.29812151854196 C 0.0 **** -0.24
28512 H 92.89877763909044 10.644232768887619 112.25727377067165 H 0.0 **** 0.06
28513 H 94.58897306412217 10.132780123454722 112.0380656136482 H 0.0 **** 0.06
28514 H 94.17219834848396 11.30998424333248 113.3071105693345 H 0.0 **** 0.06
28515 H 94.09336180552603 11.783415823024697 111.5922472495476 H 0.0 **** 0.06
28516 C 5.507980200855581 65.35946180013826 58.33435864939894 C 0.0 **** -0.24
28517 H 6.267858120349445 65.82702911801843 57.709075770548104 H 0.0 **** 0.06
28518 H 4.53598411888902 65.44315963274175 57.848065848473986 H 0.0 **** 0.06
28519 H 5.4749499971373865 65.85998644320412 59.301556881151406 H 0.0 **** 0.06
28520 H 5.75295176629489 64.30678788939741 58.47725716251605 H 0.0 **** 0.06
28521 C 29.853139430336498 71.51829003356303 78.98111409035937 C 0.0 **** -0.24
28522 H 28.77283535666065 71.6628448237372 78.94842674016678 H 0.0 **** 0.06
28523 H 30.085633681185186 70.65260780969354 79.60063491552805 H 0.0 **** 0.06
28524 H 30.325036355917547 72.40621025312166 79.40358237103803 H 0.0 **** 0.06
28525 H 30.22790607575604 71.3533429804763 77.9706810886619 H 0.0 **** 0.06
28526 C 83.32330578236895 80.10227611519821 17.248520153324947 C 0.0 **** -0.24
28527 H 83.73004680439612 81.01785159052665 17.676692571735742 H 0.0 **** 0.06
28528 H 83.62933041695248 79.24954678014848 17.85691488946759 H 0.0 **** 0.06
28529 H 83.698945070751 79.97681247189871 16.232980694435597 H 0.0 **** 0.06
28530 H 82.2349063544342 80.1627132263286 17.228608791441104 H 0.0 **** 0.06
28531 C 58.17783762008761 24.79249524766675 54.88508113415298 C 0.0 **** -0.24
28532 H 57.27310929086474 24.561481296142574 54.32204504291867 H 0.0 **** 0.06
28533 H 59.044580131677186 24.39618090040122 54.35667815037202 H 0.0 **** 0.06
28534 H 58.11514519266833 24.339588398600142 55.87399082296699 H 0.0 **** 0.06
28535 H 58.27599933972743 25.873824079354193 54.985747302845766 H 0.0 **** 0.06
28536 C 47.43665777151939 8.497536649311954 40.20782258777302 C 0.0 **** -0.24
28537 H 48.35741082210461 8.291887881724776 40.752867301517654 H 0.0 **** 0.06
28538 H 47.58335514664142 8.274554961795559 39.15112328201275 H 0.0 **** 0.06
28539 H 47.171854902788084 9.548419407786142 40.32410350769484 H 0.0 **** 0.06
28540 H 46.634010214543466 7.875284345941296 40.60319625986702 H 0.0 **** 0.06
28541 C 99.30096846620012 86.50377412045168 84.73840737621364 C 0.0 **** -0.24
28542 H 99.3765716484227 87.08960718431817 83.82270757210543 H 0.0 **** 0.06
28543 H 98.90153435253512 87.12894859196706 85.53777070458352 H 0.0 **** 0.06
28544 H 100.29029756281102 86.14193920654077 85.01987295086676 H 0.0 **** 0.06
28545 H 98.63689740111704 85.65530488925441 84.57396296528674 H 0.0 **** 0.06
28546 C 53.899369803348975 21.181991408855765 42.13922165531625 C 0.0 **** -0.24
28547 H 53.48789420192065 20.27150356489689 41.70457921058892 H 0.0 **** 0.06
28548 H 54.18939977372489 21.866685764720998 41.342291520089816 H 0.0 **** 0.06
28549 H 54.77371486944864 20.934569379043978 42.741101565236875 H 0.0 **** 0.06
28550 H 53.146864551517126 21.655400932214548 42.770589781003366 H 0.0 **** 0.06
28551 C 10.337627182936629 33.86742530097235 42.71820530425123 C 0.0 **** -0.24
28552 H 9.732671620777097 33.47793287512199 43.53649178245257 H 0.0 **** 0.06
28553 H 11.142684865065561 33.167178886632264 42.496226799340604 H 0.0 **** 0.06
28554 H 10.761757288710228 34.82989321702798 43.00572851879713 H 0.0 **** 0.06
28555 H 9.713736976892093 33.995493958399436 41.833877426527295 H 0.0 **** 0.06
28556 C 25.601087326616305 96.38955875148764 33.8818255031408 C 0.0 **** -0.24
28557 H 26.282132775949492 97.23759574661267 33.81108842405922 H 0.0 **** 0.06
28558 H 24.691164425388763 96.69592627060814 34.39945542968303 H 0.0 **** 0.06
28559 H 26.081261333691877 95.58446478888732 34.438142886821765 H 0.0 **** 0.06
28560 H 25.350479189370223 96.04002394069087 32.8807309449885 H 0.0 **** 0.06
28561 C 111.69981855900551 48.63359034128306 48.885563115417995 C 0.0 **** -0.24
28562 H 112.56389884161752 47.98545567655126 49.0392258544544 H 0.0 **** 0.06
28563 H 111.46154195666963 49.14665591796789 49.8173653336259 H 0.0 **** 0.06
28564 H 110.8468689150219 48.0324384424834 48.571590737498155 H 0.0 **** 0.06
28565 H 111.93004930427895 49.36794558163616 48.11400848677235 H 0.0 **** 0.06
28566 C 34.84647659038086 77.87283267969781 37.34035698402638 C 0.0 **** -0.24
28567 H 34.14513637888941 77.08141688200436 37.074425827688344 H 0.0 **** 0.06
28568 H 34.446451398241535 78.83443102979021 37.020330747496416 H 0.0 **** 0.06
28569 H 35.80101975596541 77.69307707320678 36.84548965717042 H 0.0 **** 0.06
28570 H 34.992724641200475 77.88032128172625 38.420611044270956 H 0.0 **** 0.06
28571 C 7.3613914997695815 93.26472316121081 97.67983510080927 C 0.0 **** -0.24
28572 H 6.436251169709919 93.06181617163952 98.22042513080899 H 0.0 **** 0.06
28573 H 7.4053238192061634 94.32207520480782 97.41981593876255 H 0.0 **** 0.06
28574 H 7.389688294498084 92.66465008819554 96.77084503804576 H 0.0 **** 0.06
28575 H 8.21263837404184 93.00856658200638 98.3105005814898 H 0.0 **** 0.06
28576 C 112.03864741348278 34.5930623174784 61.13476261100647 C 0.0 **** -0.24
28577 H 110.97242184604775 34.49894892617351 61.33985302763934 H 0.0 **** 0.06
28578 H 112.49266135089664 33.60106339392061 61.113525520528576 H 0.0 **** 0.06
28579 H 112.50732285055025 35.19053042135715 61.916647245484434 H 0.0 **** 0.06
28580 H 112.18183293383686 35.07888711970169 60.17041336568064 H 0.0 **** 0.06
28581 C 63.32394420432782 56.16498101975159 85.91836563532485 C 0.0 **** -0.24
28582 H 62.32432113644831 56.48807905424894 85.62743130919961 H 0.0 **** 0.06
28583 H 63.89815507883862 57.026288151280966 86.26252460276024 H 0.0 **** 0.06
28584 H 63.823437989175055 55.71332494843347 85.06213724439584 H 0.0 **** 0.06
28585 H 63.24819317702535 55.43341738309539 86.72332082723696 H 0.0 **** 0.06
28586 C 44.19728147611181 50.5414022174927 110.07422216667749 C 0.0 **** -0.24
28587 H 44.289837021607525 51.57930619119509 109.75425465729597 H 0.0 **** 0.06
28588 H 44.81836075396558 49.90864733060977 109.43994526203292 H 0.0 **** 0.06
28589 H 43.15681140209267 50.22805843080434 109.99325895537916 H 0.0 **** 0.06
28590 H 44.524433074319745 50.45059576350178 111.1103797099303 H 0.0 **** 0.06
28591 C 90.80594115901107 98.8302679505874 67.89190388511471 C 0.0 **** -0.24
28592 H 91.54831094407851 98.99061341836028 67.10952873847862 H 0.0 **** 0.06
28593 H 90.59706814379518 97.76478683129943 67.98134866261373 H 0.0 **** 0.06
28594 H 89.88920698778907 99.36155137761142 67.63666134804495 H 0.0 **** 0.06
28595 H 91.19220896591472 99.2061286835949 68.8391917320159 H 0.0 **** 0.06
28596 C 38.68693043310276 86.71024125538861 92.54928769276026 C 0.0 **** -0.24
28597 H 39.595478118275935 87.20959785960179 92.21328701839997 H 0.0 **** 0.06
28598 H 38.61009012702311 86.78549312758116 93.63371984003678 H 0.0 **** 0.06
28599 H 38.721423254374656 85.65995787889631 92.25907658509001 H 0.0 **** 0.06
28600 H 37.82040995752129 87.18506641333639 92.08998313402105 H 0.0 **** 0.06
28601 C 104.52392348353465 1.1782166714160072 43.893980575504 C 0.0 **** -0.24
28602 H 104.08702255586644 1.279477211294349 44.88795709946791 H 0.0 **** 0.06
28603 H 105.41692943116126 0.5563376852297433 43.951558870428386 H 0.0 **** 0.06
28604 H 104.79176001527227 2.164503630117194 43.51312614257475 H 0.0 **** 0.06
28605 H 103.79934136694843 0.71485250472732 43.22479019659278 H 0.0 **** 0.06
28606 C 90.64891245430283 0.14319486045623364 43.26174454879427 C 0.0 **** -0.24
28607 H 89.6904404051063 0.6616942109809827 43.30449047450773 H 0.0 **** 0.06
28608 H 91.41789641456762 0.8305447148615457 42.909400644975264 H 0.0 **** 0.06
28609 H 90.5734137358497 -0.7012428702378628 42.57617304208026 H 0.0 **** 0.06
28610 H 90.91062879496178 -0.2181453988267208 44.256366676522745 H 0.0 **** 0.06
28611 C 41.51323136516572 60.38708736686055 1.876307507131088 C 0.0 **** -0.24
28612 H 41.27101106563407 60.29450033840293 0.8174848721694445 H 0.0 **** 0.06
28613 H 42.579196130818275 60.210916578607716 2.0216635558759606 H 0.0 **** 0.06
28614 H 40.94213298464422 59.6519641609245 2.4445055145528727 H 0.0 **** 0.06
28615 H 41.25890699283889 61.38959458470179 2.2210317536406308 H 0.0 **** 0.06
28616 C 7.063269052587934 6.771314211994621 62.72514165747651 C 0.0 **** -0.24
28617 H 6.803953074223612 6.836785130008593 63.78239907233464 H 0.0 **** 0.06
28618 H 6.648925887783204 7.629568957387306 62.19599901774038 H 0.0 **** 0.06
28619 H 6.652762753748263 5.852037423386491 62.30692619125358 H 0.0 **** 0.06
28620 H 8.147806002532494 6.766809029477741 62.61766291703077 H 0.0 **** 0.06
28621 C 29.66457296542732 19.021443627588496 11.765048520281951 C 0.0 **** -0.24
28622 H 30.387923451610412 18.381431309294214 12.270604368162665 H 0.0 **** 0.06
28623 H 28.776833592697244 18.43992603575478 11.516513852395818 H 0.0 **** 0.06
28624 H 30.107104193886308 19.419148263829072 10.852004436832175 H 0.0 **** 0.06
28625 H 29.386729545092074 19.8455602325686 12.42386896299061 H 0.0 **** 0.06
28626 C 13.06707616365756 78.75796592550705 81.60551404178347 C 0.0 **** -0.24
28627 H 12.143425126120434 79.07164520971116 81.11775843433225 H 0.0 **** 0.06
28628 H 13.890259542716336 78.81254191460658 80.89216416020548 H 0.0 **** 0.06
28629 H 12.960699530770285 77.7333181061174 81.96102525090964 H 0.0 **** 0.06
28630 H 13.273674895463841 79.41613337057618 82.4497705183677 H 0.0 **** 0.06
28631 C 6.131885903965767 109.88427388700975 4.1822483313244305 C 0.0 **** -0.24
28632 H 5.323321526888009 109.20079621877105 4.438754152015605 H 0.0 **** 0.06
28633 H 6.020022060193341 110.80836021599053 4.750550540786918 H 0.0 **** 0.06
28634 H 6.0945752068261925 110.10753087157258 3.1153197002509927 H 0.0 **** 0.06
28635 H 7.08963175009967 109.42257244907648 4.423221544430632 H 0.0 **** 0.06
28636 C 57.731920321664916 56.16095479272377 70.22695169826525 C 0.0 **** -0.24
28637 H 57.87474360658001 56.87960524950745 69.41982071004611 H 0.0 **** 0.06
28638 H 56.693962369066355 56.1901603633637 70.55989578873044 H 0.0 **** 0.06
28639 H 58.38806078394077 56.414587349125895 71.06028457134317 H 0.0 **** 0.06
28640 H 57.97091452707298 55.15946620889832 69.86780572294097 H 0.0 **** 0.06
28641 C 17.144112182837993 107.41099522106003 9.753918035350011 C 0.0 **** -0.24
28642 H 16.92574502082181 107.8655250210175 8.787322535273404 H 0.0 **** 0.06
28643 H 18.21461753204898 107.21361545863056 9.828544122775668 H 0.0 **** 0.06
28644 H 16.595298936068705 106.47403776439404 9.846789516599756 H 0.0 **** 0.06
28645 H 16.843407015775135 108.08994896717121 10.551464001181841 H 0.0 **** 0.06
28646 C 64.01658183591883 30.275537642144656 10.834710593845855 C 0.0 **** -0.24
28647 H 64.48356703349125 29.35229900546247 10.491100847273813 H 0.0 **** 0.06
28648 H 64.52170565311499 31.127990180730393 10.382542610499556 H 0.0 **** 0.06
28649 H 64.09421421741854 30.339302332645815 11.920001641725037 H 0.0 **** 0.06
28650 H 62.965058052866645 30.280240089714198 10.544529419414971 H 0.0 **** 0.06
28651 C 26.186228760853766 102.22654545652188 90.69043225824274 C 0.0 **** -0.24
28652 H 26.810519035429024 101.9398205409251 89.84403289677053 H 0.0 **** 0.06
28653 H 26.489368625348163 101.66311781823725 91.57241006927202 H 0.0 **** 0.06
28654 H 25.14256883545258 102.00948217668787 90.4614979460851 H 0.0 **** 0.06
28655 H 26.30224192370926 103.29351065770038 90.88181568973013 H 0.0 **** 0.06
28656 C 100.47843742576757 93.09843573343781 48.2533501672192 C 0.0 **** -0.24
28657 H 100.66411765254037 92.24178059955372 48.90066630496558 H 0.0 **** 0.06
28658 H 100.42831676257299 94.00573318975356 48.85613594045236 H 0.0 **** 0.06
28659 H 99.5339601457566 92.95894436671131 47.727269161494036 H 0.0 **** 0.06
28660 H 101.28859068112527 93.18844930968459 47.52898650976619 H 0.0 **** 0.06
28661 C 84.91154429829379 87.22150505235817 67.26949923642124 C 0.0 **** -0.24
28662 H 85.54054237938183 86.76891962367932 66.50248145804554 H 0.0 **** 0.06
28663 H 85.33836597959589 88.17865575642097 67.57101247895534 H 0.0 **** 0.06
28664 H 84.85742694699252 86.55919782022781 68.1328304389186 H 0.0 **** 0.06
28665 H 83.90985532791939 87.37945160020584 66.86995264767441 H 0.0 **** 0.06
28666 C 46.99674531774621 96.91669974793737 74.79492767199221 C 0.0 **** -0.24
28667 H 46.96305856981033 96.69837282371495 73.72766766042409 H 0.0 **** 0.06
28668 H 46.63277414591301 97.92961813291504 74.96950937104623 H 0.0 **** 0.06
28669 H 48.02367350671548 96.8333497694367 75.15077548854399 H 0.0 **** 0.06
28670 H 46.367143699468485 96.20714717163656 75.33033055172925 H 0.0 **** 0.06
28671 C 70.22357016904766 70.19491964272856 49.57160401711357 C 0.0 **** -0.24
28672 H 70.34254757568013 69.35844857214298 50.26079771674145 H 0.0 **** 0.06
28673 H 71.20574258295315 70.56587078039487 49.278950669611504 H 0.0 **** 0.06
28674 H 69.66324580332414 70.9913933592604 50.060944998370076 H 0.0 **** 0.06
28675 H 69.6831182596969 69.8607469595405 48.68642963017166 H 0.0 **** 0.06
28676 C 63.5206336415857 43.756326333378354 112.63968685354573 C 0.0 **** -0.24
28677 H 63.760947371169316 42.88115022043783 113.24259432585443 H 0.0 **** 0.06
28678 H 62.46143403984983 43.991736369481316 112.74782454387432 H 0.0 **** 0.06
28679 H 63.741784489415885 43.5480192155774 111.59266972763729 H 0.0 **** 0.06
28680 H 64.11715070349246 44.60385347809165 112.97612626786405 H 0.0 **** 0.06
28681 C 39.28765142177255 65.9956155818549 12.533000370062013 C 0.0 **** -0.24
28682 H 39.876519063376435 66.83866308737367 12.89388701829948 H 0.0 **** 0.06
28683 H 39.79957668619875 65.06374245078752 12.777472252148243 H 0.0 **** 0.06
28684 H 39.16919495809498 66.07131461712578 11.451973484275044 H 0.0 **** 0.06
28685 H 38.30690075124258 66.00750715721318 13.007688751294467 H 0.0 **** 0.06
28686 C 66.85221713407333 66.49117995230776 107.40330876648726 C 0.0 **** -0.24
28687 H 65.99529917749288 65.81906220367159 107.35961976050257 H 0.0 **** 0.06
28688 H 66.67182968486696 67.26071423621528 108.15466541241936 H 0.0 **** 0.06
28689 H 66.99607439409948 66.95984424783924 106.43004301279177 H 0.0 **** 0.06
28690 H 67.74506071728882 65.92496661383251 107.67080876686178 H 0.0 **** 0.06
28691 C 32.71007296897319 8.381037393746851 75.41983587318725 C 0.0 **** -0.24
28692 H 32.47390860773206 9.174195711388421 74.71040464257794 H 0.0 **** 0.06
28693 H 32.600222691413535 8.75810426240551 76.4367109357841 H 0.0 **** 0.06
28694 H 33.73678648693719 8.047754388097559 75.26417195225486 H 0.0 **** 0.06
28695 H 32.02930018515323 7.543163570903403 75.26770010028991 H 0.0 **** 0.06
28696 C 67.6579800373456 64.11700330312073 12.97193372302253 C 0.0 **** -0.24
28697 H 67.04586443635071 64.6216522621074 13.718979418385643 H 0.0 **** 0.06
28698 H 67.95896172829524 64.83265590540361 12.206347145373968 H 0.0 **** 0.06
28699 H 67.0831536900744 63.31368087462388 12.512804059276348 H 0.0 **** 0.06
28700 H 68.54458790364066 63.701500310063416 13.450238133646721 H 0.0 **** 0.06
28701 C 58.8939785219971 13.726242092483773 109.93582384633345 C 0.0 **** -0.24
28702 H 59.52764691184029 12.855194328180858 110.10123704541093 H 0.0 **** 0.06
28703 H 58.222043053753794 13.852275470740182 110.78532649892418 H 0.0 **** 0.06
28704 H 58.309687158197335 13.583246105172151 109.02752374798996 H 0.0 **** 0.06
28705 H 59.51800148364265 14.613331455422696 109.83094223917959 H 0.0 **** 0.06
28706 C 20.730702214357436 49.05454428934314 37.84404035185624 C 0.0 **** -0.24
28707 H 21.51147049792803 49.814636603828376 37.84861292637248 H 0.0 **** 0.06
28708 H 20.96479109929784 48.288764927783916 38.5826557303747 H 0.0 **** 0.06
28709 H 20.67275424716317 48.600177113543964 36.85368383282717 H 0.0 **** 0.06
28710 H 19.773259227041635 49.51554098318638 38.088237825759386 H 0.0 **** 0.06
28711 C 80.60192773715622 110.22963958978198 109.23477608508242 C 0.0 **** -0.24
28712 H 80.1484772636409 109.99468868826355 108.27160519931945 H 0.0 **** 0.06
28713 H 81.0313076870543 111.23162074319083 109.19909553228507 H 0.0 **** 0.06
28714 H 81.38659355056765 109.50531933139571 109.4522619192069 H 0.0 **** 0.06
28715 H 79.8412264646098 110.18752413926818 110.01398865215012 H 0.0 **** 0.06
28716 C 67.13686007018907 2.29082597698401 43.162421019228816 C 0.0 **** -0.24
28717 H 67.62376605343673 2.095156280319941 44.11675545245515 H 0.0 **** 0.06
28718 H 66.21272099352262 1.7151796359883065 43.10147264525017 H 0.0 **** 0.06
28719 H 67.80111750997384 1.9987542698962528 42.348752419887376 H 0.0 **** 0.06
28720 H 66.90976173434802 3.354283220640511 43.08170869642589 H 0.0 **** 0.06
28721 C 90.55652164477013 51.205946209169895 65.84501536509956 C 0.0 **** -0.24
28722 H 91.50508666404747 50.69763464453888 66.01737003880862 H 0.0 **** 0.06
28723 H 90.19132039180337 50.96556574655659 64.84583432645502 H 0.0 **** 0.06
28724 H 90.70196818730679 52.28339907381036 65.92952619149793 H 0.0 **** 0.06
28725 H 89.82941061148429 50.87894864173205 66.58739158279758 H 0.0 **** 0.06
28726 C 66.76938679008947 27.51396433929844 35.24983018598096 C 0.0 **** -0.24
28727 H 67.3332511073992 26.80908035198658 34.63759732779995 H 0.0 **** 0.06
28728 H 65.81884657317585 27.735971767751778 34.76391410856493 H 0.0 **** 0.06
28729 H 67.34318126491544 28.43319174689364 35.365078740811605 H 0.0 **** 0.06
28730 H 66.58364096033938 27.075775329250945 36.23033528872088 H 0.0 **** 0.06
28731 C 38.77351395125247 46.41900664490976 106.31393663484823 C 0.0 **** -0.24
28732 H 38.48877668564256 46.267325301618996 105.27206767340991 H 0.0 **** 0.06
28733 H 39.41982397862245 45.60255757896425 106.63596560187293 H 0.0 **** 0.06
28734 H 37.87747519329448 46.44028468833886 106.93555088165165 H 0.0 **** 0.06
28735 H 39.305336732718885 47.364891501359864 106.40990892313198 H 0.0 **** 0.06
28736 C 60.0450847573577 99.98122888961083 51.21080451555008 C 0.0 **** -0.24
28737 H 59.01490055994566 99.84014508474189 51.5367066926778 H 0.0 **** 0.06
28738 H 60.17557384734184 101.0029342822508 50.85305443145802 H 0.0 **** 0.06
28739 H 60.26968908955229 99.28257799865779 50.40505070759133 H 0.0 **** 0.06
28740 H 60.71926497671214 99.7991785890791 52.048000511401995 H 0.0 **** 0.06
28741 C 78.34865015656797 21.196013665362756 37.5723055388828 C 0.0 **** -0.24
28742 H 78.14253876823156 21.90682265406116 38.371570187874624 H 0.0 **** 0.06
28743 H 78.0284787829469 21.618829196637705 36.619529194535914 H 0.0 **** 0.06
28744 H 77.8058892173394 20.2697644988925 37.7607794923897 H 0.0 **** 0.06
28745 H 79.41851890552553 20.98896215310353 37.536880161149384 H 0.0 **** 0.06
28746 C 5.868619050788823 20.393334251609588 59.66713871564491 C 0.0 **** -0.24
28747 H 6.1130726811557565 19.656320232803864 60.43207802505208 H 0.0 **** 0.06
28748 H 6.482274405072502 21.282392860476648 59.80952635125544 H 0.0 **** 0.06
28749 H 4.814778554429836 20.661662888057833 59.74529480326839 H 0.0 **** 0.06
28750 H 6.063208450780991 19.971191565917593 58.68040470923489 H 0.0 **** 0.06
28751 C 104.30340463864815 14.382091165711586 83.74174252348226 C 0.0 **** -0.24
28752 H 103.81353828038624 13.536850584198874 84.22348582434685 H 0.0 **** 0.06
28753 H 105.34831060063811 14.420885377985485 84.04970994650421 H 0.0 **** 0.06
28754 H 103.80325367177093 15.305998312102986 84.03333817417723 H 0.0 **** 0.06
28755 H 104.24714292000166 14.26589985573571 82.65921002366704 H 0.0 **** 0.06
28756 C 6.769289268970185 11.160527326960008 0.43240992397763023 C 0.0 **** -0.24
28757 H 5.70639809137232 11.261608984743049 0.21100242112915168 H 0.0 **** 0.06
28758 H 7.270288852757496 10.678402814798318 -0.4070808540834605 H 0.0 **** 0.06
28759 H 6.89674991439194 10.555270660227848 1.3299056285322592 H 0.0 **** 0.06
28760 H 7.201034184280669 12.147697130891615 0.5956443102588196 H 0.0 **** 0.06
28761 C 47.926917978044855 9.356535812629616 20.24415122795304 C 0.0 **** -0.24
28762 H 47.485414381130454 9.744269637990982 19.325198815166573 H 0.0 **** 0.06
28763 H 47.479335051034326 8.391834853688636 20.48158317698673 H 0.0 **** 0.06
28764 H 47.74137235011395 10.055452971166858 21.05988159270288 H 0.0 **** 0.06
28765 H 49.00216317142821 9.235335815839505 20.106769220117798 H 0.0 **** 0.06
28766 C 12.646813091186683 15.050326983332354 19.031765681352795 C 0.0 **** -0.24
28767 H 11.963924223737365 15.900091163573109 19.039384383783442 H 0.0 **** 0.06
28768 H 12.349745092071064 14.352114073745824 18.248746032781085 H 0.0 **** 0.06
28769 H 12.61269165251261 14.54862832594877 19.99859118101088 H 0.0 **** 0.06
28770 H 13.660724630413213 15.40186718205993 18.840161190953708 H 0.0 **** 0.06
28771 C 0.15645624724847096 32.74113201889621 26.625322723957282 C 0.0 **** -0.24
28772 H -0.3380551473206168 33.6734675805549 26.35236433543332 H 0.0 **** 0.06
28773 H 0.9005665069672233 32.49052944268459 25.86837111528689 H 0.0 **** 0.06
28774 H -0.5823650003719223 31.942062926734152 26.68781391863203 H 0.0 **** 0.06
28775 H 0.6465046542576118 32.86018751499594 27.59157462150003 H 0.0 **** 0.06
28776 C 76.22200256262369 103.3518576097155 28.237573370927635 C 0.0 **** -0.24
28777 H 76.92609851277768 102.98548822569094 28.98520884656449 H 0.0 **** 0.06
28778 H 76.77384336192796 103.79163150192662 27.405950784433372 H 0.0 **** 0.06
28779 H 75.57652168581512 104.10663517320887 28.68585521420883 H 0.0 **** 0.06
28780 H 75.61506278678195 102.5233863616177 27.874023069590947 H 0.0 **** 0.06
28781 C 28.606614539581102 43.90215744783757 98.9502533161361 C 0.0 **** -0.24
28782 H 28.693007837395186 44.887302394965495 98.49019015990078 H 0.0 **** 0.06
28783 H 29.309109731401037 43.21742832305099 98.47588122590042 H 0.0 **** 0.06
28784 H 27.590857810137493 43.5303636390875 98.82168842830828 H 0.0 **** 0.06
28785 H 28.83439859108276 43.97812036962298 100.01362882286014 H 0.0 **** 0.06
28786 C 3.0524047186824106 0.8644644120569751 99.21697599132526 C 0.0 **** -0.24
28787 H 3.8482444701722613 1.5082434494111965 98.84272204277889 H 0.0 **** 0.06
28788 H 3.3304263927105637 0.4773387801367335 100.19792153421372 H 0.0 **** 0.06
28789 H 2.901738640822984 0.03442556708515099 98.52752651798355 H 0.0 **** 0.06
28790 H 2.130584940885413 1.4392841029374779 99.30116602638637 H 0.0 **** 0.06
28791 C 22.38490170191926 110.68142976703648 59.79702413044629 C 0.0 **** -0.24
28792 H 22.71852549565716 109.64444596946801 59.75403367308513 H 0.0 **** 0.06
28793 H 22.628350474596488 111.1806132386806 58.859364852714236 H 0.0 **** 0.06
28794 H 22.886536774605815 111.19081318076334 60.620916892770424 H 0.0 **** 0.06
28795 H 21.306899347028292 110.70989958856714 59.95565193235734 H 0.0 **** 0.06
28796 C 98.51515239105885 69.30050178601604 81.52883998814775 C 0.0 **** -0.24
28797 H 97.79856356336862 68.51390188923983 81.76423416484337 H 0.0 **** 0.06
28798 H 99.165517560871 69.46697269955786 82.38697512478711 H 0.0 **** 0.06
28799 H 97.97926653957589 70.22033064773322 81.29389823130256 H 0.0 **** 0.06
28800 H 99.11509500423196 69.00007808336659 80.66936870102606 H 0.0 **** 0.06
28801 C 1.0894956775921116 96.3794679341413 32.570472451319475 C 0.0 **** -0.24
28802 H 1.0179712014287645 95.3065157458812 32.747783540952554 H 0.0 **** 0.06
28803 H 0.14760531755865713 96.85706518229705 32.84539782889868 H 0.0 **** 0.06
28804 H 1.294941857673365 96.5606420784996 31.515553414638617 H 0.0 **** 0.06
28805 H 1.8965445646033459 96.79491266593612 33.17390111771893 H 0.0 **** 0.06
28806 C 74.77861948536165 78.42675494148509 47.84272301691965 C 0.0 **** -0.24
28807 H 75.45938080386335 79.18300570170214 48.234312391295475 H 0.0 **** 0.06
28808 H 75.28664684157883 77.46213447194003 47.810396071754894 H 0.0 **** 0.06
28809 H 74.4636384575239 78.70575874598123 46.83773288770094 H 0.0 **** 0.06
28810 H 73.90505227104012 78.35598758147734 48.49088480258894 H 0.0 **** 0.06
28811 C 16.802679866583333 78.20056534048592 86.6280113456155 C 0.0 **** -0.24
28812 H 17.522423015836978 77.3849557624826 86.56240514219587 H 0.0 **** 0.06
28813 H 16.941563509655737 78.73339206946619 87.56881335005426 H 0.0 **** 0.06
28814 H 15.791238999321962 77.79644410462487 86.58487443244292 H 0.0 **** 0.06
28815 H 16.95473901972605 78.88661413035368 85.79430965820234 H 0.0 **** 0.06
28816 C 6.056482829761592 35.024235716215685 31.161740502087127 C 0.0 **** -0.24
28817 H 6.986182555178402 35.0156271608804 31.730093091138627 H 0.0 **** 0.06
28818 H 5.3253817490863185 34.38162114846489 31.652358602641215 H 0.0 **** 0.06
28819 H 6.24398798422763 34.65730562878542 30.152371121146217 H 0.0 **** 0.06
28820 H 5.670379030553988 36.04238892673186 31.112139193422394 H 0.0 **** 0.06
28821 C 92.82579233239028 91.5709076764141 62.69401532853586 C 0.0 **** -0.24
28822 H 93.86625935304926 91.27225301990504 62.81796334010097 H 0.0 **** 0.06
28823 H 92.36073590390725 90.9552826375577 61.924508551166745 H 0.0 **** 0.06
28824 H 92.78179905109505 92.61910669188524 62.39661347632214 H 0.0 **** 0.06
28825 H 92.29447981750627 91.43839850130831 63.63700089301492 H 0.0 **** 0.06
28826 C 109.05679117986452 14.124442576206746 106.51977772542148 C 0.0 **** -0.24
28827 H 109.41441748169343 13.921642779110044 107.53027026604036 H 0.0 **** 0.06
28828 H 109.41916575166181 15.100180305607523 106.1963199425864 H 0.0 **** 0.06
28829 H 107.9666282262331 14.12065998058685 106.51315658425037 H 0.0 **** 0.06
28830 H 109.42781303194641 13.355838490107118 105.84218499967551 H 0.0 **** 0.06
28831 C 29.81052219236946 85.80656432252414 87.17739078314392 C 0.0 **** -0.24
28832 H 30.822222497169832 85.53561325133614 86.87504261470067 H 0.0 **** 0.06
28833 H 29.848363367912526 86.67611952645558 87.83449903387637 H 0.0 **** 0.06
28834 H 29.352980857676698 84.97009334305415 87.70689119935074 H 0.0 **** 0.06
28835 H 29.2187550266315 86.0437489354673 86.29382334608016 H 0.0 **** 0.06
28836 C 110.09424988365767 28.378832322890872 39.59024124658501 C 0.0 **** -0.24
28837 H 109.30868520237225 29.03231418780001 39.21202051428516 H 0.0 **** 0.06
28838 H 109.73877660095263 27.348170553156038 39.596198010745624 H 0.0 **** 0.06
28839 H 110.3589442584163 28.67771914536675 40.6048076472041 H 0.0 **** 0.06
28840 H 110.97219076956762 28.456479467454045 38.94811651573542 H 0.0 **** 0.06
28841 C 87.99103519458458 60.19434897296852 35.43329936958339 C 0.0 **** -0.24
28842 H 88.98587600052855 60.53401458758386 35.14632830340088 H 0.0 **** 0.06
28843 H 87.98608031411678 59.93948357314958 36.49386316388687 H 0.0 **** 0.06
28844 H 87.72502514390465 59.314672293461165 34.847194444953 H 0.0 **** 0.06
28845 H 87.26800609278459 60.9872488057977 35.24642490573319 H 0.0 **** 0.06
28846 C 89.838168305137 43.28540698513936 13.209603572186104 C 0.0 **** -0.24
28847 H 90.79412824359741 42.91113606281772 13.577351207640856 H 0.0 **** 0.06
28848 H 89.95957747580445 44.31075538737025 12.861447269540175 H 0.0 **** 0.06
28849 H 89.10429300888853 43.258813618177726 14.01577557242766 H 0.0 **** 0.06
28850 H 89.49595488940952 42.65888077659045 12.385887431341072 H 0.0 **** 0.06
28851 C 33.824254917708515 78.20798796910174 0.7049186209691243 C 0.0 **** -0.24
28852 H 33.26568487950476 77.37446431509377 1.1295492392223707 H 0.0 **** 0.06
28853 H 34.322074691265016 78.75650151147138 1.5045683932039111 H 0.0 **** 0.06
28854 H 33.139938668236596 78.87333653450133 0.17819671657625236 H 0.0 **** 0.06
28855 H 34.56941624268592 77.82733834166172 0.005983800870197342 H 0.0 **** 0.06
28856 C 29.00230897494238 88.83588141483054 7.4810389197321285 C 0.0 **** -0.24
28857 H 29.87350042701182 89.44199185298902 7.731734037598784 H 0.0 **** 0.06
28858 H 28.195521561789064 89.05211826342071 8.181133961626543 H 0.0 **** 0.06
28859 H 29.264879276407044 87.77960096682529 7.542372926798521 H 0.0 **** 0.06
28860 H 28.67662975900805 89.07117669681423 6.467343886858387 H 0.0 **** 0.06
28861 C 95.75354069990516 35.60401960840409 75.65538848917245 C 0.0 **** -0.24
28862 H 95.82423194877117 36.66586759510545 75.89301643419557 H 0.0 **** 0.06
28863 H 94.86609448782508 35.18393334711698 76.12994112860696 H 0.0 **** 0.06
28864 H 96.64049296153041 35.089368504047854 76.02353962443019 H 0.0 **** 0.06
28865 H 95.68223939283345 35.478987211414676 74.57437670332791 H 0.0 **** 0.06
28866 C 13.645336648688797 79.72051953958393 52.402348656159944 C 0.0 **** -0.24
28867 H 13.682334237842241 80.25919035151793 53.349490859553555 H 0.0 **** 0.06
28868 H 12.783571856664608 80.05762672151147 51.82589344720529 H 0.0 **** 0.06
28869 H 13.558523240628986 78.65104311458506 52.595765391849056 H 0.0 **** 0.06
28870 H 14.558294669217531 79.91453751259016 51.83827229828023 H 0.0 **** 0.06
28871 C 12.119538979584263 34.623122755091345 55.53027425930907 C 0.0 **** -0.24
28872 H 11.481986122431806 33.7890425167833 55.82652247206494 H 0.0 **** 0.06
28873 H 13.084658786261912 34.24212263598787 55.19689753827359 H 0.0 **** 0.06
28874 H 12.265353562835912 35.28864678449713 56.38174435550897 H 0.0 **** 0.06
28875 H 11.64332050073645 35.17208641038229 54.718299371660066 H 0.0 **** 0.06
28876 C 89.95195577392997 73.45143073768787 104.00969380900122 C 0.0 **** -0.24
28877 H 89.03253929879878 72.88191512289643 104.14132449315699 H 0.0 **** 0.06
28878 H 89.74213628860656 74.51359550892272 104.13279186162185 H 0.0 **** 0.06
28879 H 90.34945324333177 73.27307968542652 103.01025042011165 H 0.0 **** 0.06
28880 H 90.68402421664433 73.13618070667906 104.75241215181055 H 0.0 **** 0.06
28881 C 28.841099448403867 78.76994909797057 23.430027480078707 C 0.0 **** -0.24
28882 H 28.235846328045888 77.90691329894008 23.704563762797164 H 0.0 **** 0.06
28883 H 28.79817699960568 79.51289310881313 24.227240325540805 H 0.0 **** 0.06
28884 H 28.45652620385959 79.20517382497633 22.506954179181477 H 0.0 **** 0.06
28885 H 29.873842214146798 78.45631979628328 23.280032840565724 H 0.0 **** 0.06
28886 C 90.51423958303312 85.83797769926537 97.00076768146843 C 0.0 **** -0.24
28887 H 89.96132365160182 85.8537316942936 97.94094759840411 H 0.0 **** 0.06
28888 H 90.61908496228216 84.8083167408667 96.65898684297073 H 0.0 **** 0.06
28889 H 91.50151718847911 86.27317142511339 97.15297048568053 H 0.0 **** 0.06
28890 H 89.97311704856884 86.41695477389811 96.25223020564337 H 0.0 **** 0.06
28891 C 37.418034371633155 19.306758956186506 112.50479236682945 C 0.0 **** -0.24
28892 H 37.79494869731144 18.642806991859974 113.28304926334573 H 0.0 **** 0.06
28893 H 37.48592022586848 20.3404315042005 112.84489382385384 H 0.0 **** 0.06
28894 H 36.377415980280006 19.062171105617967 112.29179580533253 H 0.0 **** 0.06
28895 H 38.01263330623806 19.18166435963583 111.60014613264553 H 0.0 **** 0.06
28896 C 59.995526204086616 22.99304917733656 17.240075464047777 C 0.0 **** -0.24
28897 H 60.40468749562808 22.68459813444747 18.20223054115425 H 0.0 **** 0.06
28898 H 58.94516805767472 23.26028396088546 17.361177876054057 H 0.0 **** 0.06
28899 H 60.08305810098733 22.172276954931334 16.529058976239384 H 0.0 **** 0.06
28900 H 60.55054433697666 23.85564387653031 16.870627666151165 H 0.0 **** 0.06
28901 C 13.187093367219887 83.1350424178967 25.87750499597354 C 0.0 **** -0.24
28902 H 13.815808171702447 82.24801801331398 25.789007010347774 H 0.0 **** 0.06
28903 H 13.710561205472906 83.8933829556758 26.45968575558186 H 0.0 **** 0.06
28904 H 12.255312931768007 82.87110461912653 26.377240346382024 H 0.0 **** 0.06
28905 H 12.97025813950896 83.52564088359406 24.883657589282336 H 0.0 **** 0.06
28906 C 88.99877790945482 99.72785404703535 79.98397740533954 C 0.0 **** -0.24
28907 H 89.19670674300289 100.77119008720399 79.73877858922344 H 0.0 **** 0.06
28908 H 88.29021518689797 99.31406171992109 79.26554004297063 H 0.0 **** 0.06
28909 H 88.57840969248878 99.663205878877 80.9871541185862 H 0.0 **** 0.06
28910 H 89.930072955823 99.16230395629171 79.94373986815086 H 0.0 **** 0.06
28911 C 45.21302623520447 73.2784595225346 67.59207986651018 C 0.0 **** -0.24
28912 H 44.98359505328344 72.31490518779907 68.04587464859364 H 0.0 **** 0.06
28913 H 45.609669755035014 73.12224612696409 66.58798684957111 H 0.0 **** 0.06
28914 H 45.954190367821894 73.79897511328943 68.19810429285545 H 0.0 **** 0.06
28915 H 44.304481771084426 73.87813775884914 67.53468322901043 H 0.0 **** 0.06
28916 C 69.95021772592398 58.7576370265711 29.46092721003197 C 0.0 **** -0.24
28917 H 70.65768569767806 58.93018015328704 28.649233064237762 H 0.0 **** 0.06
28918 H 69.0595580080462 58.26723746437938 29.067405983521155 H 0.0 **** 0.06
28919 H 69.6718589795451 59.71158508991476 29.909552809012894 H 0.0 **** 0.06
28920 H 70.4123010820216 58.12181618875286 30.216235249145598 H 0.0 **** 0.06
28921 C 74.54267027277831 99.6370073020694 3.6439447345962463 C 0.0 **** -0.24
28922 H 74.82672131622851 100.56874927326882 4.13210888577467 H 0.0 **** 0.06
28923 H 73.46857556059692 99.63882202884844 3.454919021813552 H 0.0 **** 0.06
28924 H 74.79682554167962 98.79728291847175 4.290167919825819 H 0.0 **** 0.06
28925 H 75.07809437459872 99.54445540105118 2.698964007842463 H 0.0 **** 0.06
28926 C 11.387724407901018 8.60096662879746 9.236894735479694 C 0.0 **** -0.24
28927 H 10.490152659973404 8.115935968425253 8.851571913619694 H 0.0 **** 0.06
28928 H 11.103284483216086 9.401811836064487 9.920407975545942 H 0.0 **** 0.06
28929 H 11.959040352038073 9.017073020248421 8.406310587304432 H 0.0 **** 0.06
28930 H 11.997332805204252 7.8694923212579795 9.765736138608986 H 0.0 **** 0.06
28931 C 6.817461393012721 62.79806790090617 3.4532950864136733 C 0.0 **** -0.24
28932 H 7.20499485674199 62.338904904378914 2.5440385068894678 H 0.0 **** 0.06
28933 H 6.080300819531132 62.13630558962776 3.9085624258875526 H 0.0 **** 0.06
28934 H 6.348241991239277 63.75063007556765 3.2080221296940543 H 0.0 **** 0.06
28935 H 7.636143679841197 62.965450213074185 4.152662531392043 H 0.0 **** 0.06
28936 C 34.68356502480043 74.20299649025114 86.55082113654768 C 0.0 **** -0.24
28937 H 33.81969998637686 73.55190983654316 86.4138839198985 H 0.0 **** 0.06
28938 H 34.51651851486844 74.85266647205742 87.41088442357562 H 0.0 **** 0.06
28939 H 34.82540197354905 74.81108836312225 85.6578424702015 H 0.0 **** 0.06
28940 H 35.5728430837417 73.59510571638054 86.7218907604493 H 0.0 **** 0.06
28941 C 29.33378285676413 61.54603213532664 43.43316921545875 C 0.0 **** -0.24
28942 H 28.895403546505882 62.39027625832219 43.96341323126288 H 0.0 **** 0.06
28943 H 29.279024148653484 61.72295170567631 42.35897912808858 H 0.0 **** 0.06
28944 H 28.785112626348884 60.63735191485554 43.68116041004302 H 0.0 **** 0.06
28945 H 30.3769616727176 61.43226266992937 43.73033572459738 H 0.0 **** 0.06
28946 C 36.69302470585956 71.02614980107779 20.764419485173242 C 0.0 **** -0.24
28947 H 36.400174476733355 72.06682311826822 20.90373992106262 H 0.0 **** 0.06
28948 H 37.286722684051085 70.6996666917683 21.619128771696438 H 0.0 **** 0.06
28949 H 37.28531531371681 70.93433187786025 19.854735683754253 H 0.0 **** 0.06
28950 H 35.80171399987904 70.40531874189298 20.682143560144883 H 0.0 **** 0.06
28951 C 112.00477246520622 108.25329704406295 99.74956183833243 C 0.0 **** -0.24
28952 H 112.67041503373194 108.21124599922288 100.61233477137557 H 0.0 **** 0.06
28953 H 111.12247045013947 107.64221811781975 99.94164808915653 H 0.0 **** 0.06
28954 H 112.52498644253617 107.87439088678997 98.8701120646931 H 0.0 **** 0.06
28955 H 111.7013248740607 109.28553304868353 99.57659147581478 H 0.0 **** 0.06
28956 C 71.90382252453765 12.457185430961829 71.36119508473655 C 0.0 **** -0.24
28957 H 71.23408293139715 13.250862294621584 71.69088471187945 H 0.0 **** 0.06
28958 H 72.42391328975185 12.773543492169608 70.4563466818359 H 0.0 **** 0.06
28959 H 71.3242864176421 11.55755792099518 71.15162483148674 H 0.0 **** 0.06
28960 H 72.63113005855001 12.245884806530682 72.14510081151968 H 0.0 **** 0.06
28961 C 27.7900860451376 111.62523002222952 35.427815494497935 C 0.0 **** -0.24
28962 H 27.05970431293875 111.92762731091207 36.17865157926647 H 0.0 **** 0.06
28963 H 28.361328918255992 112.49568910566002 35.10497193827575 H 0.0 **** 0.06
28964 H 27.27284879112773 111.19232773015037 34.57165043444812 H 0.0 **** 0.06
28965 H 28.46598871287057 110.88450288696684 35.85556577982831 H 0.0 **** 0.06
28966 C 46.3180714350452 63.4890159068064 55.26889348585743 C 0.0 **** -0.24
28967 H 46.7892465799934 63.190112280161316 54.33265848215939 H 0.0 **** 0.06
28968 H 45.40875093189638 64.0518175051391 55.055007898929205 H 0.0 **** 0.06
28969 H 47.006695651024586 64.11344382631603 55.83910214711739 H 0.0 **** 0.06
28970 H 46.068674018158276 62.600470572719075 55.84968997379306 H 0.0 **** 0.06
28971 C 25.640926317131914 81.95745316381056 112.38715414970613 C 0.0 **** -0.24
28972 H 24.950997430588927 81.13437424003286 112.57615591611227 H 0.0 **** 0.06
28973 H 26.024588219795874 81.8829459718616 111.36992920998 H 0.0 **** 0.06
28974 H 26.469153485325876 81.90625547209288 113.09300815068264 H 0.0 **** 0.06
28975 H 25.11676809843442 82.90594947522834 112.51056559419686 H 0.0 **** 0.06
28976 C 72.2678190551218 17.47738926499406 22.50522041139834 C 0.0 **** -0.24
28977 H 72.01087862142134 18.513278013735118 22.724228273521817 H 0.0 **** 0.06
28978 H 71.52305631470895 16.8169906828862 22.9489686966956 H 0.0 **** 0.06
28979 H 73.24935552756844 17.25036074645969 22.921361729051057 H 0.0 **** 0.06
28980 H 72.2886703350807 17.329236973400512 21.42566286463463 H 0.0 **** 0.06
28981 C 4.120399113764522 34.499810488563185 12.640513613341568 C 0.0 **** -0.24
28982 H 5.066392341343809 34.365555125996934 12.116386077033155 H 0.0 **** 0.06
28983 H 3.5107238275256734 33.60356478026472 12.526071213635362 H 0.0 **** 0.06
28984 H 3.5914826661761943 35.355860544913696 12.222151265882758 H 0.0 **** 0.06
28985 H 4.313522932608183 34.674712784164285 13.699572084877275 H 0.0 **** 0.06
28986 C 99.50089823425208 65.27548616148249 61.51030699501405 C 0.0 **** -0.24
28987 H 99.98197693378094 66.1163154051869 62.00828065033926 H 0.0 **** 0.06
28988 H 100.26046755069589 64.63828526005801 61.05793786872874 H 0.0 **** 0.06
28989 H 98.82933463695531 65.64733023211306 60.73608755295504 H 0.0 **** 0.06
28990 H 98.93070224185303 64.69933909673901 62.23947811142216 H 0.0 **** 0.06
28991 C 43.674846611939074 80.335264405913 33.93327561140893 C 0.0 **** -0.24
28992 H 43.68167085359926 79.72457494674833 34.836140056784416 H 0.0 **** 0.06
28993 H 42.68607329382223 80.77504347976657 33.7986868187628 H 0.0 **** 0.06
28994 H 43.9162604751092 79.71298928399236 33.0719804439118 H 0.0 **** 0.06
28995 H 44.41579851414457 81.12935838263527 34.02626180571815 H 0.0 **** 0.06
28996 C 45.73601930117633 51.235938549515865 47.650364366924066 C 0.0 **** -0.24
28997 H 45.250817465826714 51.4628818983876 46.70161928794348 H 0.0 **** 0.06
28998 H 45.26857103847806 51.81790921300024 48.44479854970924 H 0.0 **** 0.06
28999 H 46.79362965443062 51.48990901006823 47.58678231165499 H 0.0 **** 0.06
29000 H 45.630210561526184 50.17320812482185 47.867750958812735 H 0.0 **** 0.06
29001 C 8.193299521830596 46.20391890410277 12.053923215539768 C 0.0 **** -0.24
29002 H 8.59784808693999 46.628214907154096 12.972738615364278 H 0.0 **** 0.06
29003 H 8.649414050971913 45.230547380413626 11.871769886703106 H 0.0 **** 0.06
29004 H 8.412183489981814 46.87021323847076 11.21922381734764 H 0.0 **** 0.06
29005 H 7.114485957971226 46.08786113110689 12.151622788767497 H 0.0 **** 0.06
29006 C 83.56407018649224 21.38652189411843 108.9907174530418 C 0.0 **** -0.24
29007 H 82.82840402908448 20.94811979450796 108.31741275504783 H 0.0 **** 0.06
29008 H 83.11346845025204 21.53770146790822 109.97210588456876 H 0.0 **** 0.06
29009 H 83.89573158724184 22.345906629522204 108.59167093623934 H 0.0 **** 0.06
29010 H 84.41894688058491 20.717347421584776 109.08164975432454 H 0.0 **** 0.06
29011 C 62.14051800860147 106.34262102928686 32.50394083300222 C 0.0 **** -0.24
29012 H 61.40903478603867 106.99234100674965 32.982449481126054 H 0.0 **** 0.06
29013 H 62.88549522683213 106.03214576385517 33.237438288638074 H 0.0 **** 0.06
29014 H 62.6308812287917 106.8820152822758 31.694030282653756 H 0.0 **** 0.06
29015 H 61.636920237206915 105.46289928026468 32.10271727776882 H 0.0 **** 0.06
29016 C 25.3443179830208 70.52328852550448 64.19211426624949 C 0.0 **** -0.24
29017 H 25.590537118136695 69.81356060168653 63.4025297026052 H 0.0 **** 0.06
29018 H 24.262784298659426 70.65586760342825 64.23842995595007 H 0.0 **** 0.06
29019 H 25.819900048583207 71.48109084017034 63.98095362249692 H 0.0 **** 0.06
29020 H 25.705368204737454 70.14248947174048 65.14834452132331 H 0.0 **** 0.06
29021 C 44.38695593227797 13.25483266046928 98.73884438781022 C 0.0 **** -0.24
29022 H 43.67116833353461 13.253029936310472 99.56099356143488 H 0.0 **** 0.06
29023 H 44.437638450532404 12.258807652742203 98.298070180085 H 0.0 **** 0.06
29024 H 45.37074244723928 13.535743875805835 99.11491137094305 H 0.0 **** 0.06
29025 H 44.068813407947715 13.972039044749629 97.98219339344212 H 0.0 **** 0.06
29026 C 67.84754807000604 95.67260132924127 6.189543788417637 C 0.0 **** -0.24
29027 H 68.8981975531953 95.78538468113081 6.456521231354472 H 0.0 **** 0.06
29028 H 67.22674746948567 95.89424719416456 7.056862091341344 H 0.0 **** 0.06
29029 H 67.66442859761182 94.64890446279693 5.863167672741824 H 0.0 **** 0.06
29030 H 67.6023881169254 96.36157141238212 5.380420627928274 H 0.0 **** 0.06
29031 C 75.6554930742104 58.86953632251854 36.04559090244325 C 0.0 **** -0.24
29032 H 74.95789332663566 58.308385654411694 35.42517747919825 H 0.0 **** 0.06
29033 H 75.35220328581485 58.79749860122868 37.09082358010722 H 0.0 **** 0.06
29034 H 75.65473762242837 59.91506580720835 35.7378249175575 H 0.0 **** 0.06
29035 H 76.6579471576737 58.4577047935191 35.92883048619483 H 0.0 **** 0.06
29036 C 108.36407479981085 26.042944362230628 73.41037173382023 C 0.0 **** -0.24
29037 H 108.91567117980223 25.670454449710803 74.27318924174932 H 0.0 **** 0.06
29038 H 107.29437796160595 25.927171600160364 73.58590165202656 H 0.0 **** 0.06
29039 H 108.65012972120812 25.475895655265276 72.52426521577428 H 0.0 **** 0.06
29040 H 108.59542341431481 27.09670925183184 73.25848129983473 H 0.0 **** 0.06
29041 C 57.421809653274295 16.418764968606297 27.704919561730236 C 0.0 **** -0.24
29042 H 58.48600742360736 16.4749550107461 27.93630503556105 H 0.0 **** 0.06
29043 H 56.975627965771196 15.584902807750666 28.24788295934337 H 0.0 **** 0.06
29044 H 57.290322437223494 16.268428531162215 26.633518404557293 H 0.0 **** 0.06
29045 H 56.93611897878617 17.348465822244634 28.00353194465893 H 0.0 **** 0.06
29046 C 89.74119509435607 28.025100357447002 84.18499344722571 C 0.0 **** -0.24
29047 H 88.97813262150345 28.23925796456382 83.43603108064266 H 0.0 **** 0.06
29048 H 89.88556919996307 28.902738060038075 84.8167431518304 H 0.0 **** 0.06
29049 H 90.67806488193065 27.77795402201002 83.68649968163939 H 0.0 **** 0.06
29050 H 89.42244398386322 27.183325534034168 84.79837275122358 H 0.0 **** 0.06
29051 C 88.2153330898575 68.27775572820687 83.61427309490833 C 0.0 **** -0.24
29052 H 89.01194441234628 68.63902981734418 84.265190034884 H 0.0 **** 0.06
29053 H 87.50461226175975 67.69529439969617 84.19989929987273 H 0.0 **** 0.06
29054 H 88.64278297316832 67.65060939992628 82.83222230177023 H 0.0 **** 0.06
29055 H 87.70467110518956 69.12670263640248 83.16134617958673 H 0.0 **** 0.06
29056 C 75.51720728667294 105.354808829483 57.595692322626675 C 0.0 **** -0.24
29057 H 76.6064018803005 105.31485739930812 57.563066238603824 H 0.0 **** 0.06
29058 H 75.16649510180093 104.91988703072715 58.53148790331203 H 0.0 **** 0.06
29059 H 75.10742208180056 104.79070841707176 56.75692400602078 H 0.0 **** 0.06
29060 H 75.18921065911888 106.39155236528168 57.530558911448935 H 0.0 **** 0.06
29061 C 3.5186697116154164 34.8979999053754 38.049729392934125 C 0.0 **** -0.24
29062 H 3.9435970143114645 33.94718017616225 37.727797678623006 H 0.0 **** 0.06
29063 H 3.549484138195524 35.60731775899802 37.22245733148662 H 0.0 **** 0.06
29064 H 4.0963188185336605 35.290208843971016 38.88631172975357 H 0.0 **** 0.06
29065 H 2.484549782991891 34.74711740681545 38.36115176555137 H 0.0 **** 0.06
29066 C 91.61042921688093 69.66213623674653 8.248883778891894 C 0.0 **** -0.24
29067 H 91.10844718096999 70.59559778530277 7.993186697226292 H 0.0 **** 0.06
29068 H 91.8312626503724 69.10701182521524 7.335962643267123 H 0.0 **** 0.06
29069 H 90.96217131699092 69.06495388934664 8.890113320760179 H 0.0 **** 0.06
29070 H 92.5391307580145 69.88178239581589 8.774580787140707 H 0.0 **** 0.06
29071 C 106.27236832462131 91.45157092686225 91.94646584200942 C 0.0 **** -0.24
29072 H 106.32473791585326 90.38886404712142 91.70556956189441 H 0.0 **** 0.06
29073 H 106.19091495901935 91.5740169063829 93.02700773531893 H 0.0 **** 0.06
29074 H 105.39940889712565 91.89073273071108 91.46330215052251 H 0.0 **** 0.06
29075 H 107.17444610999097 91.94903061856263 91.59085244304356 H 0.0 **** 0.06
29076 C 93.90706441104709 47.387473875241824 57.57448076560627 C 0.0 **** -0.24
29077 H 93.13097800641631 48.122238318910036 57.359398190189154 H 0.0 **** 0.06
29078 H 94.72893497408782 47.509621737010036 56.86886254183389 H 0.0 **** 0.06
29079 H 93.4929660120089 46.38306916830345 57.479269619865704 H 0.0 **** 0.06
29080 H 94.2738660290899 47.53338838639252 58.589920991792894 H 0.0 **** 0.06
29081 C 26.369018595091575 52.04815193230097 53.40627716430454 C 0.0 **** -0.24
29082 H 25.67390713436231 51.607126754398955 52.6917960638225 H 0.0 **** 0.06
29083 H 27.35188525095552 52.14372570375739 52.94381718405055 H 0.0 **** 0.06
29084 H 26.441237035718558 51.407325579387184 54.28521031800538 H 0.0 **** 0.06
29085 H 26.00936870800915 53.033039422094994 53.70330401667373 H 0.0 **** 0.06
29086 C 38.217109943317006 46.68280385479115 34.76320600020711 C 0.0 **** -0.24
29087 H 38.63888109512145 46.77676755050891 33.76278644907445 H 0.0 **** 0.06
29088 H 37.575705853340494 45.80234979453718 34.8056541773671 H 0.0 **** 0.06
29089 H 37.62990618112547 47.57208932454093 34.994514330225684 H 0.0 **** 0.06
29090 H 39.023851402575566 46.580400895745775 35.48895405386712 H 0.0 **** 0.06
29091 C 106.30333854948077 82.87054744888889 9.492997602665639 C 0.0 **** -0.24
29092 H 107.06429135522029 83.558587412328 9.124539692024626 H 0.0 **** 0.06
29093 H 106.04577259304648 82.15956352146497 8.707243132278833 H 0.0 **** 0.06
29094 H 105.41466433835251 83.43162141525008 9.781515405639524 H 0.0 **** 0.06
29095 H 106.69073882624076 82.33200628044838 10.358086526895988 H 0.0 **** 0.06
29096 C 85.5515905308992 23.69789754754412 58.97703645783543 C 0.0 **** -0.24
29097 H 85.71967376420315 23.420994862685834 57.93669407643157 H 0.0 **** 0.06
29098 H 86.50590203748897 23.930558490065355 59.44984597576963 H 0.0 **** 0.06
29099 H 85.07822219961582 22.867452557600586 59.501138497670745 H 0.0 **** 0.06
29100 H 84.90171710300405 24.57284430791485 59.0200036000634 H 0.0 **** 0.06
29101 C 100.08275385190697 106.99590153320193 70.87715765241131 C 0.0 **** -0.24
29102 H 101.07780377092197 107.3715393914177 70.63807134126577 H 0.0 **** 0.06
29103 H 99.97871077303469 105.97891620996697 70.49937429801756 H 0.0 **** 0.06
29104 H 99.33245636241847 107.635519397487 70.41283015009199 H 0.0 **** 0.06
29105 H 99.94441684633318 106.99946676725926 71.95840903868307 H 0.0 **** 0.06
29106 C 5.293246019056511 53.820252343616374 56.065449127384554 C 0.0 **** -0.24
29107 H 4.874674343117363 54.40541780189275 56.884682650739904 H 0.0 **** 0.06
29108 H 4.847314718766896 52.824672781508696 56.06511721537514 H 0.0 **** 0.06
29109 H 6.372061448594565 53.735398348286225 56.19450119125942 H 0.0 **** 0.06
29110 H 5.078854126948372 54.31577568789956 55.118459089091466 H 0.0 **** 0.06
29111 C 85.29558528109908 109.7974533214697 39.21362155707078 C 0.0 **** -0.24
29112 H 86.1705309290331 109.51253757366413 39.79841088031455 H 0.0 **** 0.06
29113 H 85.44539505115944 110.79517678290277 38.79918048146985 H 0.0 **** 0.06
29114 H 84.41422543586631 109.79717280012223 39.85407535739088 H 0.0 **** 0.06
29115 H 85.15488496358529 109.08370287376476 38.40053039586326 H 0.0 **** 0.06
29116 C 21.995373722052136 22.499897612767512 57.510168764936566 C 0.0 **** -0.24
29117 H 20.987204121337214 22.809721138569927 57.783263556057015 H 0.0 **** 0.06
29118 H 22.47511177613913 23.29129592428538 56.93501708592753 H 0.0 **** 0.06
29119 H 21.946525846902006 21.591495333600506 56.908359270362624 H 0.0 **** 0.06
29120 H 22.573100577406592 22.30588846021834 58.41341483955994 H 0.0 **** 0.06
29121 C 13.274177423316285 102.8304099881725 65.44026130752795 C 0.0 **** -0.24
29122 H 13.662759194327748 102.23238930115212 64.61596775920339 H 0.0 **** 0.06
29123 H 13.349653665528812 103.88868482254298 65.18896240046107 H 0.0 **** 0.06
29124 H 13.854506738615225 102.62823135337123 66.34108100850642 H 0.0 **** 0.06
29125 H 12.230652406818987 102.5715903805675 65.61587242580296 H 0.0 **** 0.06
29126 C 98.41014612216455 48.202732405838645 106.61734708365583 C 0.0 **** -0.24
29127 H 97.67987419616784 47.45067562634122 106.915237797094 H 0.0 **** 0.06
29128 H 98.59264748816807 48.12665569638311 105.54505513606199 H 0.0 **** 0.06
29129 H 99.34274668847397 48.036807931021144 107.15747456276728 H 0.0 **** 0.06
29130 H 98.02643698746672 49.194709490924474 106.85226421344014 H 0.0 **** 0.06
29131 C 93.18868080811683 25.472640606678226 68.94417565753551 C 0.0 **** -0.24
29132 H 93.79077504370375 26.365123706535826 69.11315142188545 H 0.0 **** 0.06
29133 H 93.02957551047288 25.339543524019405 67.87371355786365 H 0.0 **** 0.06
29134 H 92.22640350606929 25.58384219640959 69.44358828300366 H 0.0 **** 0.06
29135 H 93.70796917222142 24.602052999748366 69.34624936738916 H 0.0 **** 0.06
29136 C 11.63397152896708 100.83181182847181 11.407702137335999 C 0.0 **** -0.24
29137 H 12.540532593952921 100.588105973354 10.854074228623347 H 0.0 **** 0.06
29138 H 11.557034915862545 100.18389040199156 12.281536240996079 H 0.0 **** 0.06
29139 H 10.765312554050013 100.6816215638921 10.766905883315339 H 0.0 **** 0.06
29140 H 11.673044531419855 101.87209839805101 11.729101393640722 H 0.0 **** 0.06
29141 C 111.34367109872233 53.163598734851576 9.581140799155591 C 0.0 **** -0.24
29142 H 110.40791377026082 53.58188732439402 9.95226649395822 H 0.0 **** 0.06
29143 H 111.56644955393858 53.584608843196975 8.600945607726402 H 0.0 **** 0.06
29144 H 111.24911351955635 52.08088590345071 9.498187933614915 H 0.0 **** 0.06
29145 H 112.14897854548695 53.4067291671941 10.27413855243121 H 0.0 **** 0.06
29146 C 37.442633245184346 0.45775766657934014 32.357882467013866 C 0.0 **** -0.24
29147 H 38.14111550832506 -0.11413334048425838 32.96834505013916 H 0.0 **** 0.06
29148 H 36.89346202160121 -0.21995487291874838 31.70340700210633 H 0.0 **** 0.06
29149 H 37.99460421362662 1.178275830799322 31.753132025634727 H 0.0 **** 0.06
29150 H 36.74278653933029 0.9865032141786969 33.0046900906992 H 0.0 **** 0.06
29151 C 1.0126142455332001 50.67689195284339 89.68683802162624 C 0.0 **** -0.24
29152 H -0.021506040561519058 50.39108917795397 89.87989089499001 H 0.0 **** 0.06
29153 H 1.0803112503558054 51.15375127525232 88.70817424590231 H 0.0 **** 0.06
29154 H 1.6450166885384192 49.789502302855 89.70318194402674 H 0.0 **** 0.06
29155 H 1.3449697871060948 51.3748729395283 90.45538973598951 H 0.0 **** 0.06
29156 C 82.15156330173639 96.86106795999748 77.57614550204215 C 0.0 **** -0.24
29157 H 82.90784038482153 97.14485640407335 76.84555438692973 H 0.0 **** 0.06
29158 H 81.83974713230342 95.83136628842297 77.39512987471932 H 0.0 **** 0.06
29159 H 81.29042104793851 97.52281976563955 77.48384192452781 H 0.0 **** 0.06
29160 H 82.56707418589696 96.94316842673916 78.5806745603393 H 0.0 **** 0.06
29161 C 9.976632448622723 75.19495953463769 89.34753149078415 C 0.0 **** -0.24
29162 H 9.913753943700726 76.23492038070225 89.66593540269514 H 0.0 **** 0.06
29163 H 10.485731386897498 74.61074623964575 90.11572848969274 H 0.0 **** 0.06
29164 H 10.535455334748434 75.13332467656588 88.41460736685403 H 0.0 **** 0.06
29165 H 8.971988296826112 74.80016919912515 89.19674986819075 H 0.0 **** 0.06
29166 C 10.72940147030522 49.78519356210947 12.410329371196159 C 0.0 **** -0.24
29167 H 10.666605015893964 49.351167022868005 13.407891359933558 H 0.0 **** 0.06
29168 H 11.737492734444885 49.64672543851557 12.018079401804933 H 0.0 **** 0.06
29169 H 10.502014866577355 50.84983130925776 12.460798836912371 H 0.0 **** 0.06
29170 H 10.012614131287023 49.29108043402927 11.7536189485125 H 0.0 **** 0.06
29171 C 56.51840293719937 24.709364143912694 18.389179259824857 C 0.0 **** -0.24
29172 H 56.24067503212021 25.750774442239788 18.553353619619344 H 0.0 **** 0.06
29173 H 55.90025075529314 24.06579365025874 19.01491264903035 H 0.0 **** 0.06
29174 H 57.56794023204927 24.568864357820985 18.647912080908498 H 0.0 **** 0.06
29175 H 56.36536698146446 24.45416977272015 17.340436090071734 H 0.0 **** 0.06
29176 C 20.034592421820122 77.725222736147 48.17518989947132 C 0.0 **** -0.24
29177 H 20.371644030409755 78.55061897736888 48.80227733268785 H 0.0 **** 0.06
29178 H 19.13396642746727 77.28629067981154 48.60555707884049 H 0.0 **** 0.06
29179 H 20.817079584760393 76.96830375124514 48.119030351749615 H 0.0 **** 0.06
29180 H 19.81537553088944 78.09705664858666 47.1739701817566 H 0.0 **** 0.06
29181 C 34.11735495252884 56.60012579098617 93.86028563650302 C 0.0 **** -0.24
29182 H 33.953546101782024 56.36025189393288 94.91093094809636 H 0.0 **** 0.06
29183 H 33.55998686391632 55.90118505683847 93.23744376466465 H 0.0 **** 0.06
29184 H 35.18072151498046 56.523617671410335 93.63199747193812 H 0.0 **** 0.06
29185 H 33.77459358575561 57.61628393983952 93.66276422761607 H 0.0 **** 0.06
29186 C 107.46564650519858 69.85493395177733 46.073368326254695 C 0.0 **** -0.24
29187 H 106.98657465997222 69.98413712793263 45.10324974976044 H 0.0 **** 0.06
29188 H 108.317866377924 69.18171158731025 45.97143487723574 H 0.0 **** 0.06
29189 H 106.75099562884523 69.4320574350383 46.778315753656386 H 0.0 **** 0.06
29190 H 107.80851991212205 70.82211416155741 46.44027108015601 H 0.0 **** 0.06
29191 C 59.98589800044601 68.17926913884901 20.467715579394746 C 0.0 **** -0.24
29192 H 59.720268880813 68.81873969482442 19.625025212791552 H 0.0 **** 0.06
29193 H 59.767583353343944 67.14059301062363 20.218330256558602 H 0.0 **** 0.06
29194 H 59.406317306284826 68.47336712647558 21.34262641456966 H 0.0 **** 0.06
29195 H 61.04879433690203 68.2863221790615 20.682925666146662 H 0.0 **** 0.06
29196 C 39.268445463523676 60.28359738829992 78.38505178700893 C 0.0 **** -0.24
29197 H 39.99212069197961 60.31292916550438 77.57048122552357 H 0.0 **** 0.06
29198 H 39.75024363616666 59.90243694785499 79.28586235136322 H 0.0 **** 0.06
29199 H 38.440897747720726 59.62880808190591 78.11091282961439 H 0.0 **** 0.06
29200 H 38.89060959536607 61.288533753954574 78.57147954319504 H 0.0 **** 0.06
29201 C 50.67533963985147 82.21296880193557 46.933030078891534 C 0.0 **** -0.24
29202 H 49.58633464042026 82.22293803043755 46.982881246145894 H 0.0 **** 0.06
29203 H 51.00759455511553 82.86755680497069 46.12721334172471 H 0.0 **** 0.06
29204 H 51.02101972709852 81.19688129019755 46.742733369305 H 0.0 **** 0.06
29205 H 51.08447528531889 82.56466641153301 47.87977247527738 H 0.0 **** 0.06
29206 C 11.724216111838047 24.36061449075794 36.1732539064858 C 0.0 **** -0.24
29207 H 12.616332660550825 23.913160408345448 36.60963585773766 H 0.0 **** 0.06
29208 H 12.000585913222238 24.929318461333377 35.28463419432626 H 0.0 **** 0.06
29209 H 11.258472863262426 25.026239523447224 36.90010667184569 H 0.0 **** 0.06
29210 H 11.021098234463295 23.574655601876007 35.89762868327654 H 0.0 **** 0.06
29211 C 34.09805174358383 71.70088338926894 42.44407049491609 C 0.0 **** -0.24
29212 H 34.832464307928554 70.9386468970149 42.18042830299266 H 0.0 **** 0.06
29213 H 33.886035058012354 71.64645322630452 43.51128350152422 H 0.0 **** 0.06
29214 H 33.18062927551838 71.53075658008356 41.88078703000798 H 0.0 **** 0.06
29215 H 34.49545608541427 72.68692631270676 42.20183801060359 H 0.0 **** 0.06
29216 C 22.480523020046157 83.74045372340771 1.4054121228191718 C 0.0 **** -0.24
29217 H 22.332806189705508 84.69632954649211 0.9040834207687283 H 0.0 **** 0.06
29218 H 21.985232347570975 83.75900294616798 2.375968890563911 H 0.0 **** 0.06
29219 H 23.547652389975003 83.56441035360237 1.5448972203879805 H 0.0 **** 0.06
29220 H 22.05692017878007 82.94173332007347 0.7959141457479291 H 0.0 **** 0.06
29221 C 86.12898025440182 45.36787919764488 0.3667000804295242 C 0.0 **** -0.24
29222 H 85.3429061981042 45.76299888321418 1.0110450693533153 H 0.0 **** 0.06
29223 H 85.87834242448301 45.56762357546462 -0.6749674450450414 H 0.0 **** 0.06
29224 H 86.21759573901033 44.29303289057903 0.5202775010245091 H 0.0 **** 0.06
29225 H 87.07570481600135 45.849874096004015 0.6124620859106074 H 0.0 **** 0.06
29226 C 34.20535854801349 21.781171265050546 10.990770641846154 C 0.0 **** -0.24
29227 H 34.08190376826545 22.144285050783537 9.970092568421762 H 0.0 **** 0.06
29228 H 35.13108475189324 21.2097681421846 11.062540313479815 H 0.0 **** 0.06
29229 H 33.36152488159834 21.142634435639934 11.253798966805462 H 0.0 **** 0.06
29230 H 34.2470339189708 22.628497128032848 11.674474072406412 H 0.0 **** 0.06
29231 C 16.025744807713238 25.161120237041068 61.77123264977405 C 0.0 **** -0.24
29232 H 16.46749471574782 25.111034718650597 62.76645415785481 H 0.0 **** 0.06
29233 H 16.811629650125724 25.328233004010006 61.034238917604966 H 0.0 **** 0.06
29234 H 15.310858148791397 25.98284760471673 61.73254711771284 H 0.0 **** 0.06
29235 H 15.514880158281017 24.223808882995566 61.552298666082095 H 0.0 **** 0.06
29236 C 88.87317595006357 6.245338127827026 31.338767999690873 C 0.0 **** -0.24
29237 H 88.94549899802107 7.319449019216577 31.50920436097075 H 0.0 **** 0.06
29238 H 89.73372652716452 5.911653865034097 30.75926054926351 H 0.0 **** 0.06
29239 H 87.95750945661086 6.02692972341832 30.789808076355975 H 0.0 **** 0.06
29240 H 88.85587906533044 5.725726003495296 32.29634849225245 H 0.0 **** 0.06
29241 C 50.55610238135441 72.84145861182304 55.377561786355784 C 0.0 **** -0.24
29242 H 51.18455193121358 73.39798846454681 54.68194543968298 H 0.0 **** 0.06
29243 H 49.507355937790564 73.06021944807773 55.17541329896437 H 0.0 **** 0.06
29244 H 50.79805803020608 73.13399270473684 56.399366887123335 H 0.0 **** 0.06
29245 H 50.73509780650502 71.7728855277044 55.253631740519836 H 0.0 **** 0.06
29246 C 89.87317629241457 21.224768128591478 58.25488852467896 C 0.0 **** -0.24
29247 H 90.44069092553539 21.566589567327497 59.12009636139055 H 0.0 **** 0.06
29248 H 90.27574486040749 21.68300008323797 57.351681794463786 H 0.0 **** 0.06
29249 H 88.82745839756964 21.50839065739038 58.371253044882906 H 0.0 **** 0.06
29250 H 89.94835056813346 20.1398302473377 58.176965151301374 H 0.0 **** 0.06
29251 C 54.01884055953128 30.927350195803257 107.62854877125768 C 0.0 **** -0.24
29252 H 53.279039545111296 31.572730130943057 108.10297119186527 H 0.0 **** 0.06
29253 H 54.07875094896286 29.98401471806872 108.16983447982574 H 0.0 **** 0.06
29254 H 54.992223779370114 31.419542973524926 107.64500702746302 H 0.0 **** 0.06
29255 H 53.726016199662126 30.737179783084002 106.59650640932206 H 0.0 **** 0.06
29256 C 53.593129573934334 68.34086016260798 69.12975007537159 C 0.0 **** -0.24
29257 H 53.3341148073269 67.29108419909619 68.99021443699809 H 0.0 **** 0.06
29258 H 52.775721842967016 68.85159285041996 69.63967866379505 H 0.0 **** 0.06
29259 H 53.762648437938196 68.80498707555427 68.15893914152048 H 0.0 **** 0.06
29260 H 54.49884644287681 68.41451841181936 69.73190272927772 H 0.0 **** 0.06
29261 C 58.06855880230504 32.553948782181294 17.05624065284502 C 0.0 **** -0.24
29262 H 58.02306310965306 33.15741441466258 17.962547298192362 H 0.0 **** 0.06
29263 H 57.69676613066844 33.136440650929615 16.212911027173448 H 0.0 **** 0.06
29264 H 57.454137181894964 31.663237423861005 17.182888476282017 H 0.0 **** 0.06
29265 H 59.100553647481696 32.25915470961564 16.86826343137676 H 0.0 **** 0.06
29266 C 34.36530500558928 97.39166707465898 30.735506524201114 C 0.0 **** -0.24
29267 H 33.820399161838964 98.33400229730933 30.803428688138524 H 0.0 **** 0.06
29268 H 33.65564862662637 96.56390014307641 30.709618329264373 H 0.0 **** 0.06
29269 H 35.01696769009379 97.2859769172793 31.60176146351226 H 0.0 **** 0.06
29270 H 34.96620317852819 97.38458596939242 29.825277036113334 H 0.0 **** 0.06
29271 C 53.59592836404963 8.802197641309377 96.94239063751681 C 0.0 **** -0.24
29272 H 54.665925269750204 8.704241658627481 96.75595914399045 H 0.0 **** 0.06
29273 H 53.37642569400302 8.502614275494878 97.96691869734036 H 0.0 **** 0.06
29274 H 53.04782297512472 8.16349685402227 96.25040933339517 H 0.0 **** 0.06
29275 H 53.29589356147105 9.83933736604348 96.79499098067942 H 0.0 **** 0.06
29276 C 9.29909299538538 99.31298420496256 16.375507373433265 C 0.0 **** -0.24
29277 H 9.121413554592777 99.36964787155051 17.449227359998986 H 0.0 **** 0.06
29278 H 8.389190696112905 98.98238832495605 15.87422343968774 H 0.0 **** 0.06
29279 H 10.101816713134014 98.60309904933257 16.17738100591407 H 0.0 **** 0.06
29280 H 9.583723199644496 100.29743312448454 16.00193883565919 H 0.0 **** 0.06
29281 C 81.75905470640956 86.76565439865422 53.78261908962003 C 0.0 **** -0.24
29282 H 80.81277953339219 86.35734282944901 54.136061151184094 H 0.0 **** 0.06
29283 H 81.56568857021085 87.51482082829108 53.012915408373885 H 0.0 **** 0.06
29284 H 82.36794447962234 85.96407578700871 53.365235179926174 H 0.0 **** 0.06
29285 H 82.28903574985577 87.22825966107027 54.61489838433192 H 0.0 **** 0.06
29286 C 11.899743953505606 18.966179564331014 7.251487226296886 C 0.0 **** -0.24
29287 H 12.53748912351108 19.73604887532303 7.685628585923286 H 0.0 **** 0.06
29288 H 11.431708112106548 18.38934397907939 8.048693288043545 H 0.0 **** 0.06
29289 H 12.502381077121868 18.304792607207037 6.629238752951258 H 0.0 **** 0.06
29290 H 11.129114405824964 19.435869233379794 6.640322683035018 H 0.0 **** 0.06
29291 C 68.77887120732859 110.97354949654368 74.91907506848077 C 0.0 **** -0.24
29292 H 68.65230117989867 110.77451868666827 75.98286269191726 H 0.0 **** 0.06
29293 H 68.54015831613802 112.01694983999761 74.71352882535649 H 0.0 **** 0.06
29294 H 68.11239708989217 110.3282792884412 74.34710306133883 H 0.0 **** 0.06
29295 H 69.81184488269346 110.77378610167949 74.63308661182845 H 0.0 **** 0.06
29296 C 82.64683749089806 32.75953405578676 8.875944503614136 C 0.0 **** -0.24
29297 H 81.82432334246215 32.48505875090174 9.535343541579905 H 0.0 **** 0.06
29298 H 82.35293989712508 32.592238904497435 7.838902062882923 H 0.0 **** 0.06
29299 H 83.51964234488139 32.14925792055473 9.108691430560924 H 0.0 **** 0.06
29300 H 82.89113333052035 33.81228968540648 9.018599785303522 H 0.0 **** 0.06
29301 C 111.09647438471075 106.05479241557597 88.09877744476088 C 0.0 **** -0.24
29302 H 110.69123797050929 107.06181238851852 88.00015387543803 H 0.0 **** 0.06
29303 H 111.5819710227277 105.95265198128865 89.06963107407304 H 0.0 **** 0.06
29304 H 111.82409885716595 105.87710598243336 87.30694568051453 H 0.0 **** 0.06
29305 H 110.28650369361092 105.32873351853601 88.01898125951857 H 0.0 **** 0.06
29306 C 110.40632908264361 75.2278773466767 13.87075846763048 C 0.0 **** -0.24
29307 H 109.69244442940472 75.60454098125135 14.603019743331117 H 0.0 **** 0.06
29308 H 110.90812993015274 76.06615789205253 13.38681729221122 H 0.0 **** 0.06
29309 H 109.88042543684003 74.6368125708662 13.12114979555821 H 0.0 **** 0.06
29310 H 111.14591635219564 74.60243594056746 14.372078910617859 H 0.0 **** 0.06
29311 C 0.16519529258941645 81.90587590104803 6.770050491941063 C 0.0 **** -0.24
29312 H -0.07753134479843027 81.44709800374784 7.7281355433795795 H 0.0 **** 0.06
29313 H -0.7532212684996864 82.0879944661699 6.211230945483777 H 0.0 **** 0.06
29314 H 0.8114568928079819 81.23773350879321 6.201011772290087 H 0.0 **** 0.06
29315 H 0.6798547801458596 82.85155040197043 6.9402584303846595 H 0.0 **** 0.06
29316 C 79.23794439628168 72.50212687730732 32.853357858769954 C 0.0 **** -0.24
29317 H 78.18804288918344 72.21069738175038 32.83323231830201 H 0.0 **** 0.06
29318 H 79.86240075398987 71.61721593340695 32.72808893770417 H 0.0 **** 0.06
29319 H 79.46486060684646 72.97478822673759 33.8093216182817 H 0.0 **** 0.06
29320 H 79.43475283519007 73.20487789327012 32.04426467017436 H 0.0 **** 0.06
29321 C 59.16508346116968 30.952162334944575 107.93302507769268 C 0.0 **** -0.24
29322 H 59.51274295954908 31.980885244005833 107.84294516294666 H 0.0 **** 0.06
29323 H 59.98621975247358 30.27077298119835 107.70739660728304 H 0.0 **** 0.06
29324 H 58.34833628499454 30.78271805486355 107.23225050189507 H 0.0 **** 0.06
29325 H 58.81506405002269 30.7755220052603 108.95007620511262 H 0.0 **** 0.06
29326 C 86.09706321233344 91.64617006298081 80.44896148629113 C 0.0 **** -0.24
29327 H 85.52760276730442 90.78401786359805 80.7969367857261 H 0.0 **** 0.06
29328 H 86.05910067907459 92.43386463345644 81.20202360237943 H 0.0 **** 0.06
29329 H 85.66795209348308 92.01287541538102 79.51607496244782 H 0.0 **** 0.06
29330 H 87.13360606859885 91.35315197135469 80.28144817828516 H 0.0 **** 0.06
29331 C 74.01011647888157 24.638579056862252 99.22477128079078 C 0.0 **** -0.24
29332 H 73.31274168624952 24.421878620580944 98.41562191005337 H 0.0 **** 0.06
29333 H 73.65293266385598 24.174995156386455 100.14539888705377 H 0.0 **** 0.06
29334 H 74.08056716824544 25.71749985188687 99.36410192221916 H 0.0 **** 0.06
29335 H 74.99309374868528 24.23865758234856 98.97422799263487 H 0.0 **** 0.06
29336 C 8.62698969668476 104.57943029920335 17.90693291739086 C 0.0 **** -0.24
29337 H 9.159185367629036 105.51910827404421 18.05818607590637 H 0.0 **** 0.06
29338 H 8.978869916353531 104.10783866692137 16.98927772898623 H 0.0 **** 0.06
29339 H 7.558271601171157 104.77608350027106 17.82758252216251 H 0.0 **** 0.06
29340 H 8.813074209478458 103.91636850767404 18.75163404037164 H 0.0 **** 0.06
29341 C 31.433006496089035 10.37333782870408 60.07530166322842 C 0.0 **** -0.24
29342 H 32.11812938315467 9.848834219004829 60.74223947955955 H 0.0 **** 0.06
29343 H 31.91233674787702 11.278685455672843 59.70221373478841 H 0.0 **** 0.06
29344 H 30.527977319792114 10.63835047603493 60.62065365781232 H 0.0 **** 0.06
29345 H 31.17612693693593 9.725695910876794 59.236682403677726 H 0.0 **** 0.06
29346 C 99.4921533179648 36.40268361517868 90.89635087345795 C 0.0 **** -0.24
29347 H 99.07772502628893 36.19632357182326 91.88286193843703 H 0.0 **** 0.06
29348 H 98.95290629977453 35.82270312851986 90.14717886625772 H 0.0 **** 0.06
29349 H 100.54638898972254 36.126225409530065 90.87975570939298 H 0.0 **** 0.06
29350 H 99.39159295607317 37.46548235084167 90.67560697974452 H 0.0 **** 0.06
29351 C 17.664582278962484 29.62333008342027 73.53662795620187 C 0.0 **** -0.24
29352 H 17.83565131084123 29.898129179973466 72.4962192946449 H 0.0 **** 0.06
29353 H 18.41231917014619 28.893519863366095 73.84814683565048 H 0.0 **** 0.06
29354 H 16.668920669465592 29.190598970741632 73.63918618702235 H 0.0 **** 0.06
29355 H 17.740314090810557 30.512160255995497 74.16420591320559 H 0.0 **** 0.06
29356 C 97.53509139794673 57.85065490339426 33.600247661423424 C 0.0 **** -0.24
29357 H 98.57779091726167 57.53359642154717 33.600214122625204 H 0.0 **** 0.06
29358 H 97.28918332706078 58.28905876308954 32.63230512693721 H 0.0 **** 0.06
29359 H 97.38114385042468 58.59159741702962 34.38408289701931 H 0.0 **** 0.06
29360 H 96.8939756714741 56.98885877585252 33.783057384929236 H 0.0 **** 0.06
29361 C 88.0098689481539 69.57064686956727 64.90895290298164 C 0.0 **** -0.24
29362 H 87.87614907584748 70.20207608086724 64.0309013636587 H 0.0 **** 0.06
29363 H 87.04626847058955 69.15788901684917 65.20911704956794 H 0.0 **** 0.06
29364 H 88.42244255331582 70.16370039079234 65.7242803530144 H 0.0 **** 0.06
29365 H 88.69553960107112 68.756889730468 64.66950864352415 H 0.0 **** 0.06
29366 C 98.8483915495251 97.52434532911158 21.875541166895818 C 0.0 **** -0.24
29367 H 98.64816172278123 98.56437814893752 22.131886840126818 H 0.0 **** 0.06
29368 H 99.92681276869419 97.35836118729188 21.84807282805775 H 0.0 **** 0.06
29369 H 98.42170783115967 97.30191192956846 20.89791100613649 H 0.0 **** 0.06
29370 H 98.39903426476278 96.873221945014 22.625358984410397 H 0.0 **** 0.06
29371 C 49.96067237232638 72.36792846873027 36.52922068347954 C 0.0 **** -0.24
29372 H 49.157716107395444 72.96459901171198 36.09720002495084 H 0.0 **** 0.06
29373 H 50.76464279737719 73.02562638477735 36.85901815742554 H 0.0 **** 0.06
29374 H 50.34164090387417 71.67527653107862 35.77883834503888 H 0.0 **** 0.06
29375 H 49.57758754329202 71.80565666886713 37.38113550216988 H 0.0 **** 0.06
29376 C 18.362227446824782 56.69863771145279 78.50806348241764 C 0.0 **** -0.24
29377 H 17.919515015956268 57.68772315292782 78.62537537242633 H 0.0 **** 0.06
29378 H 18.439418232429578 56.21786846159481 79.48318854772543 H 0.0 **** 0.06
29379 H 19.356444268154494 56.79632762247245 78.0709559004128 H 0.0 **** 0.06
29380 H 17.735069294583838 56.0955363485434 77.85318206985903 H 0.0 **** 0.06
29381 C 17.121632752806775 1.987951286623968 86.88562603590495 C 0.0 **** -0.24
29382 H 17.85564335896686 1.2958961227172665 87.2975488801089 H 0.0 **** 0.06
29383 H 17.590222248848345 2.5914432846088005 86.1071057839751 H 0.0 **** 0.06
29384 H 16.75280852961937 2.6393121545318365 87.6771871719001 H 0.0 **** 0.06
29385 H 16.29152256458456 1.4257381117371324 86.4601913158962 H 0.0 **** 0.06
29386 C 68.31589195995099 38.26683186069164 24.404164665254182 C 0.0 **** -0.24
29387 H 69.20676579250204 38.88850900697307 24.313805706843585 H 0.0 **** 0.06
29388 H 67.99274356975488 37.94999578814543 23.411681159632188 H 0.0 **** 0.06
29389 H 67.51970047144746 38.839522443682455 24.879324612106775 H 0.0 **** 0.06
29390 H 68.54416925070433 37.39013822952225 25.010040995438818 H 0.0 **** 0.06
29391 C 62.4254685955583 99.18254515989148 18.01957846466499 C 0.0 **** -0.24
29392 H 63.40349321161227 99.02253267219794 18.473998175935407 H 0.0 **** 0.06
29393 H 61.6930147825359 98.52914113008808 18.494616390664618 H 0.0 **** 0.06
29394 H 62.478411654936 98.95773001680081 16.954984882917756 H 0.0 **** 0.06
29395 H 62.12738369064226 100.22284281792423 18.15684705082282 H 0.0 **** 0.06
29396 C 36.788861527374415 11.545227858034593 31.527209011071506 C 0.0 **** -0.24
29397 H 36.56110450189104 11.503104122001247 32.592387271462854 H 0.0 **** 0.06
29398 H 36.748942355191176 12.580679819950717 31.187871230320695 H 0.0 **** 0.06
29399 H 36.058175785789324 10.953743624509215 30.9758714402342 H 0.0 **** 0.06
29400 H 37.78698644954982 11.144260317136286 31.353790431181892 H 0.0 **** 0.06
29401 C 90.56169231606654 89.06463567145107 61.89171954632584 C 0.0 **** -0.24
29402 H 89.8151656113422 88.30697706742856 62.13016390957565 H 0.0 **** 0.06
29403 H 90.57908577717589 89.81726214439561 62.68011808884848 H 0.0 **** 0.06
29404 H 90.30897826607563 89.53767773262888 60.94320957709831 H 0.0 **** 0.06
29405 H 91.54283500943808 88.5959314037292 61.814397325974234 H 0.0 **** 0.06
29406 C 71.76776445333934 10.667943092068924 38.706411844894234 C 0.0 **** -0.24
29407 H 72.4976372861637 11.467994270686972 38.823211052110636 H 0.0 **** 0.06
29408 H 72.24443468595243 9.80629798147811 38.23908906699211 H 0.0 **** 0.06
29409 H 70.94659986497592 11.0140716259653 38.07806624434255 H 0.0 **** 0.06
29410 H 71.38140498597133 10.382544808914815 39.684740806706884 H 0.0 **** 0.06
29411 C 76.61692704027584 33.41402079424128 46.26992252534433 C 0.0 **** -0.24
29412 H 77.14539074766506 34.22179807596068 45.764698513699784 H 0.0 **** 0.06
29413 H 77.32892332298363 32.81003904429588 46.83202545682843 H 0.0 **** 0.06
29414 H 76.11489367985891 32.790099332847575 45.53043560335013 H 0.0 **** 0.06
29415 H 75.87850041059559 33.834146723860854 46.95253052749905 H 0.0 **** 0.06
29416 C 74.59155047486271 20.473321649768252 67.3024029175877 C 0.0 **** -0.24
29417 H 73.93258761144975 21.341193644257032 67.25660317326557 H 0.0 **** 0.06
29418 H 75.24763005034862 20.56165198866222 68.16930246507619 H 0.0 **** 0.06
29419 H 75.19242689983597 20.426370848214674 66.39383615031139 H 0.0 **** 0.06
29420 H 73.99217303699953 19.56708413740398 67.38986520467142 H 0.0 **** 0.06
29421 C 15.199744440723123 1.598486786272474 13.777753162408274 C 0.0 **** -0.24
29422 H 16.07032467593268 1.0857263474960632 14.18617837001267 H 0.0 **** 0.06
29423 H 15.326363686949094 2.675703459906913 13.889463680665841 H 0.0 **** 0.06
29424 H 14.30585144746425 1.2793308350168786 14.31540759737112 H 0.0 **** 0.06
29425 H 15.094793618169831 1.3525909844590558 12.721356488625275 H 0.0 **** 0.06
29426 C 58.35409663737954 50.064470930937404 105.54157524570968 C 0.0 **** -0.24
29427 H 59.054680744008124 49.49438501394425 104.9312307857899 H 0.0 **** 0.06
29428 H 57.35384559607115 49.98374743435636 105.11733251018242 H 0.0 **** 0.06
29429 H 58.65781475098541 51.11122732068648 105.5616941829841 H 0.0 **** 0.06
29430 H 58.351531986765224 49.668171122718746 106.55767630109723 H 0.0 **** 0.06
29431 C 6.57180351850468 16.810634094134514 59.35407318860761 C 0.0 **** -0.24
29432 H 6.119580777072798 17.254434398909154 60.24018671946728 H 0.0 **** 0.06
29433 H 6.014527441429095 15.916798507645922 59.070221432270934 H 0.0 **** 0.06
29434 H 7.605810114985417 16.54081155808683 59.56974323523277 H 0.0 **** 0.06
29435 H 6.5473035373981645 17.529178838330722 58.534331378332844 H 0.0 **** 0.06
29436 C 93.81196281283093 107.32689994482251 42.57406697478997 C 0.0 **** -0.24
29437 H 92.739102623192 107.35177582902965 42.767045310765006 H 0.0 **** 0.06
29438 H 93.98671833344076 107.22486547784341 41.50317442839717 H 0.0 **** 0.06
29439 H 94.2547986152316 106.47841109074947 43.096257113841084 H 0.0 **** 0.06
29440 H 94.26645937913636 108.25061880861381 42.93108892848148 H 0.0 **** 0.06
29441 C 80.52924711212685 26.13399160953064 103.17470955528327 C 0.0 **** -0.24
29442 H 80.42989621228176 25.073156053802002 103.4043434047887 H 0.0 **** 0.06
29443 H 79.86934012898814 26.710613101777376 103.82352375433581 H 0.0 **** 0.06
29444 H 80.25734489728086 26.30696496482131 102.13293853805934 H 0.0 **** 0.06
29445 H 81.5615377124636 26.445974999322196 103.33625188593453 H 0.0 **** 0.06
29446 C 23.016744287582185 39.69334601129856 106.86269132416788 C 0.0 **** -0.24
29447 H 23.894967180422896 40.15122970019675 107.31624990379431 H 0.0 **** 0.06
29448 H 22.910113745394938 38.67183323837884 107.22985894375707 H 0.0 **** 0.06
29449 H 23.13284891230566 39.67981569889767 105.77957685071314 H 0.0 **** 0.06
29450 H 22.12916283008221 40.26826114090295 107.1260544124469 H 0.0 **** 0.06
29451 C 87.1574442320387 53.24378784147666 78.91942031500457 C 0.0 **** -0.24
29452 H 86.11502382701181 53.295870823033965 78.60900234461081 H 0.0 **** 0.06
29453 H 87.36493999062463 52.256077962637505 79.33109991770482 H 0.0 **** 0.06
29454 H 87.34914432879893 54.00191137491822 79.67801909337402 H 0.0 **** 0.06
29455 H 87.80231609454674 53.420545537701 78.0579074272195 H 0.0 **** 0.06
29456 C 97.44312215239808 107.02490963101178 24.620706112176908 C 0.0 **** -0.24
29457 H 96.72415927202576 107.3172356737131 23.855947849127876 H 0.0 **** 0.06
29458 H 98.24238275368407 106.44074006372827 24.16347766178928 H 0.0 **** 0.06
29459 H 96.94207140071586 106.42321863196132 25.37922604898975 H 0.0 **** 0.06
29460 H 97.86457266476111 107.91635425782785 25.083790613586377 H 0.0 **** 0.06
29461 C 44.337328426316134 99.49286339447133 67.62850539044473 C 0.0 **** -0.24
29462 H 45.39572749174769 99.34066335038528 67.41550541186677 H 0.0 **** 0.06
29463 H 43.91209727982189 100.17045821895829 66.88756736105552 H 0.0 **** 0.06
29464 H 44.2250035183053 99.92285655670116 68.62325627631145 H 0.0 **** 0.06
29465 H 43.81728654871755 98.53555854963906 67.58639481778826 H 0.0 **** 0.06
29466 C 111.75854918135401 109.0039521500517 44.41990647672036 C 0.0 **** -0.24
29467 H 110.9279062292811 108.4551284931685 43.97514775606351 H 0.0 **** 0.06
29468 H 112.18644537733601 109.67796931744147 43.678209733077296 H 0.0 **** 0.06
29469 H 112.51986787361786 108.30080153300054 44.75558991284345 H 0.0 **** 0.06
29470 H 111.39625425154615 109.58172272049248 45.27035397938852 H 0.0 **** 0.06
29471 C 103.80740328917005 80.3074535861906 29.382283627646302 C 0.0 **** -0.24
29472 H 103.8795850093025 81.25521216186522 29.915927590025433 H 0.0 **** 0.06
29473 H 103.48794042289285 79.52615021838511 30.071876195820323 H 0.0 **** 0.06
29474 H 104.78152031192923 80.0490846525795 28.967318694496754 H 0.0 **** 0.06
29475 H 103.08102867529414 80.39954312841692 28.574881732475404 H 0.0 **** 0.06
29476 C 45.05770681458682 12.851791498936862 108.616187935579 C 0.0 **** -0.24
29477 H 44.92603517690392 12.471840828383264 109.62986368349387 H 0.0 **** 0.06
29478 H 46.080975720119994 13.204916617611431 108.49092121508257 H 0.0 **** 0.06
29479 H 44.36518847865321 13.676452521194491 108.44498924719856 H 0.0 **** 0.06
29480 H 44.856608165478946 12.05450774545156 107.90087938641553 H 0.0 **** 0.06
29481 C 23.25319729190035 110.51540114922682 33.60382014780481 C 0.0 **** -0.24
29482 H 23.795909009413872 110.4634371064165 34.54869698045258 H 0.0 **** 0.06
29483 H 22.187369710046617 110.38423645282742 33.789980732963926 H 0.0 **** 0.06
29484 H 23.606680984679354 109.72799880048063 32.93893583555463 H 0.0 **** 0.06
29485 H 23.424917307694308 111.4869522584165 33.14059983226355 H 0.0 **** 0.06
29486 C 39.04304384799201 16.693430020652286 67.08480469586968 C 0.0 **** -0.24
29487 H 38.428501612013065 15.971339841740786 67.62235190263459 H 0.0 **** 0.06
29488 H 40.0095287173188 16.246537152096863 66.85159415525095 H 0.0 **** 0.06
29489 H 39.192130755705136 17.57692309486535 67.70658162105545 H 0.0 **** 0.06
29490 H 38.54155646443115 16.9795028347219 66.16025662266244 H 0.0 **** 0.06
29491 C 55.853843955060334 47.872159112733726 92.04372110009501 C 0.0 **** -0.24
29492 H 55.376155245309306 47.192757255533806 92.74883877690809 H 0.0 **** 0.06
29493 H 56.68095350372262 47.361791382633726 91.5500582851788 H 0.0 **** 0.06
29494 H 56.23192407898858 48.74378361952888 92.57950615176924 H 0.0 **** 0.06
29495 H 55.12653375357967 48.19246580830594 91.29855278998969 H 0.0 **** 0.06
29496 C 8.984393461295866 17.60425307385748 11.039909550998743 C 0.0 **** -0.24
29497 H 9.015344360058378 16.81034152576197 10.293611425772212 H 0.0 **** 0.06
29498 H 8.082097376705889 17.499479530645885 11.643457181969154 H 0.0 **** 0.06
29499 H 8.976635441689652 18.57236075669445 10.539413097957834 H 0.0 **** 0.06
29500 H 9.861844016746275 17.533189412629127 11.682397565743145 H 0.0 **** 0.06
29501 C 44.19927104484217 51.727508218747836 29.644407796405382 C 0.0 **** -0.24
29502 H 43.266470816917 51.31277573151957 30.024268287521807 H 0.0 **** 0.06
29503 H 45.00375859909306 51.51792443503256 30.34908629003443 H 0.0 **** 0.06
29504 H 44.09357288135341 52.80636366054357 29.522965123772558 H 0.0 **** 0.06
29505 H 44.43275375747641 51.27506108866893 28.680724344188164 H 0.0 **** 0.06
29506 C 102.64375731061193 62.40496425836286 0.5824584522557643 C 0.0 **** -0.24
29507 H 101.9203084923812 61.83155967629414 1.1619620124611743 H 0.0 **** 0.06
29508 H 103.65053852414746 62.054189524134664 0.8105923981953538 H 0.0 **** 0.06
29509 H 102.559569132957 63.460770555022016 0.8377283889131348 H 0.0 **** 0.06
29510 H 102.44494325865469 62.27113782537932 -0.48068068517166296 H 0.0 **** 0.06
29511 C 111.09781270701163 66.43024909128334 3.6535318305893725 C 0.0 **** -0.24
29512 H 110.48889027480959 65.56886113611449 3.9287202655764872 H 0.0 **** 0.06
29513 H 112.13488906286717 66.24483178830954 3.9348243799620377 H 0.0 **** 0.06
29514 H 110.73107865350238 67.31537468561618 4.174616548795711 H 0.0 **** 0.06
29515 H 111.03499262878503 66.59069479459257 2.5775526648653226 H 0.0 **** 0.06
29516 C 25.566255905643466 26.69983853945911 70.48064226339261 C 0.0 **** -0.24
29517 H 26.451997355530807 27.184787332392418 70.06888480153387 H 0.0 **** 0.06
29518 H 25.650214426573324 26.65139645542645 71.56638842561588 H 0.0 **** 0.06
29519 H 25.48434253806849 25.691090549629337 70.07628343127428 H 0.0 **** 0.06
29520 H 24.679570051404077 27.273669785901717 70.20950883216491 H 0.0 **** 0.06
29521 C 99.14362233977025 17.015076902754103 63.97163348907549 C 0.0 **** -0.24
29522 H 99.18356383189956 17.736064376605782 64.78799989970653 H 0.0 **** 0.06
29523 H 99.82474721659133 16.190352406581443 64.18272311207377 H 0.0 **** 0.06
29524 H 99.43796720712533 17.501682539909208 63.042243694178154 H 0.0 **** 0.06
29525 H 98.1272881771643 16.63253725423195 63.87581231794877 H 0.0 **** 0.06
29526 C 98.60641993269974 46.09947821798974 50.27620590168908 C 0.0 **** -0.24
29527 H 99.09053282594516 46.16616236759609 51.25027432495244 H 0.0 **** 0.06
29528 H 99.2300381072757 46.586514326440906 49.526049496097556 H 0.0 **** 0.06
29529 H 97.635565357596 46.592504156706696 50.31891621500736 H 0.0 **** 0.06
29530 H 98.47052206173606 45.05087103809336 50.01034470465632 H 0.0 **** 0.06
29531 C 104.74439392699031 82.58650642383071 50.78251900818617 C 0.0 **** -0.24
29532 H 104.1061912518752 81.72017330305337 50.958117103951224 H 0.0 **** 0.06
29533 H 105.52200293878792 82.32505858775906 50.06357481974396 H 0.0 **** 0.06
29534 H 105.20422028932472 82.89461459688863 51.72044083036445 H 0.0 **** 0.06
29535 H 104.14231658513887 83.40477641185961 50.3859580922138 H 0.0 **** 0.06
29536 C 52.87033938901229 104.61724413079287 19.870306991669622 C 0.0 **** -0.24
29537 H 52.730950196873835 103.55711856735081 19.65789736338337 H 0.0 **** 0.06
29538 H 52.96624768993098 105.16508535382752 18.932394398062797 H 0.0 **** 0.06
29539 H 53.77395643803436 104.75228782698773 20.46485961936196 H 0.0 **** 0.06
29540 H 52.01063739479176 104.99401655782447 20.42393356037485 H 0.0 **** 0.06
29541 C 32.43174231351714 59.15997573300808 108.90144987392839 C 0.0 **** -0.24
29542 H 33.22630318611921 59.1123043993297 109.64650617230265 H 0.0 **** 0.06
29543 H 31.515846079679903 59.520992623884126 109.36928027149466 H 0.0 **** 0.06
29544 H 32.26193668748605 58.16575240822934 108.4876643692007 H 0.0 **** 0.06
29545 H 32.72453321699041 59.84130536437044 108.1020770841078 H 0.0 **** 0.06
29546 C 21.33959233087876 60.38002706612907 30.768828558205186 C 0.0 **** -0.24
29547 H 22.28981218293731 60.436912327842286 31.30104163893955 H 0.0 **** 0.06
29548 H 21.432186613114766 59.68623291451015 29.93350386656735 H 0.0 **** 0.06
29549 H 21.075094217426766 61.368452988275784 30.39384548766577 H 0.0 **** 0.06
29550 H 20.562895720630337 60.02908696622229 31.449381932171093 H 0.0 **** 0.06
29551 C 55.52862678538932 61.671978568732804 67.4783221376565 C 0.0 **** -0.24
29552 H 56.47995019618341 61.14570193332536 67.40425443288586 H 0.0 **** 0.06
29553 H 55.381639759449484 62.01466989474532 68.50328747547195 H 0.0 **** 0.06
29554 H 54.718605614160595 60.99849831816339 67.20048517838131 H 0.0 **** 0.06
29555 H 55.535637020710226 62.53013427453008 66.80669500871426 H 0.0 **** 0.06
29556 C 66.56020997543186 33.797589701346084 95.45696735855776 C 0.0 **** -0.24
29557 H 66.72093768369501 34.220729922539 94.46548546956106 H 0.0 **** 0.06
29558 H 67.52025784480449 33.67438321612828 95.9585953710328 H 0.0 **** 0.06
29559 H 66.07143126266763 32.82784507820186 95.36295072099898 H 0.0 **** 0.06
29560 H 65.92874375507358 34.468453563137466 96.04005699217834 H 0.0 **** 0.06
29561 C 56.04625948474478 54.52499246204064 11.01638970413407 C 0.0 **** -0.24
29562 H 56.67501145511807 54.236150175630826 11.85899846249913 H 0.0 **** 0.06
29563 H 56.072471714915764 53.74100958617453 10.258539951903003 H 0.0 **** 0.06
29564 H 56.418609375596645 55.4561263922306 10.588401861187947 H 0.0 **** 0.06
29565 H 55.02156456581605 54.66561621730369 11.359588832236014 H 0.0 **** 0.06
29566 C 77.84598126503374 44.143688688433926 23.182958451156466 C 0.0 **** -0.24
29567 H 78.69408212109977 44.104299122585786 22.498859898098043 H 0.0 **** 0.06
29568 H 77.82934494110674 45.11108129471029 23.686543855724707 H 0.0 **** 0.06
29569 H 77.93978473803867 43.349867378384545 23.923799870462727 H 0.0 **** 0.06
29570 H 76.92141802937977 44.01076129359987 22.62166575694857 H 0.0 **** 0.06
29571 C 50.892235320779264 97.66041520683308 13.36219561252846 C 0.0 **** -0.24
29572 H 51.92778268392118 97.77659617842622 13.681118800672376 H 0.0 **** 0.06
29573 H 50.61148371159413 98.50165662594168 12.726904410072951 H 0.0 **** 0.06
29574 H 50.24246997967293 97.63391667718594 14.237418592726439 H 0.0 **** 0.06
29575 H 50.7867716551101 96.73075891181162 12.802887125093427 H 0.0 **** 0.06
29576 C 17.983470083025992 105.96869020070912 5.104489002814958 C 0.0 **** -0.24
29577 H 18.383744634655187 106.84359885642675 5.618065280835694 H 0.0 **** 0.06
29578 H 18.58791968950493 105.75693751129342 4.222660875911899 H 0.0 **** 0.06
29579 H 16.954549064102167 106.16626843053629 4.8016724841483835 H 0.0 **** 0.06
29580 H 18.006072581469198 105.11159971033283 5.776644743949262 H 0.0 **** 0.06
29581 C 67.43878112240455 90.98019537817177 71.77307580506255 C 0.0 **** -0.24
29582 H 68.09693002067092 91.56065325659586 72.41818662053657 H 0.0 **** 0.06
29583 H 68.03852151216586 90.38683054241753 71.08145875796424 H 0.0 **** 0.06
29584 H 66.79414449355986 91.65434153565181 71.20943767384244 H 0.0 **** 0.06
29585 H 66.82501802728117 90.31663201899573 72.3826387211659 H 0.0 **** 0.06
29586 C 13.037202310236637 88.07610476811246 111.92759274087005 C 0.0 **** -0.24
29587 H 13.409520340446988 88.21064137342339 110.91142167002387 H 0.0 **** 0.06
29588 H 13.354535921768672 88.91672062108248 112.54512961394498 H 0.0 **** 0.06
29589 H 13.435848711029621 87.14942995893495 112.3411471716283 H 0.0 **** 0.06
29590 H 11.948641294997799 88.02746662373713 111.91045770083846 H 0.0 **** 0.06
29591 C 46.96552979088332 110.38202978057802 57.87150400928434 C 0.0 **** -0.24
29592 H 46.7710085434658 111.38188667576605 57.48249873026256 H 0.0 **** 0.06
29593 H 47.72725326563008 110.43799043709873 58.649363997121156 H 0.0 **** 0.06
29594 H 47.31747404489013 109.74039179062368 57.06441897270443 H 0.0 **** 0.06
29595 H 46.04751366110605 109.97038133126068 58.29029667944769 H 0.0 **** 0.06
29596 C 90.16154313327297 2.5696793430572313 65.5844203958736 C 0.0 **** -0.24
29597 H 90.50234102391047 2.4928306222044228 64.55143708607773 H 0.0 **** 0.06
29598 H 89.0851801727652 2.398111679471384 65.62517320844995 H 0.0 **** 0.06
29599 H 90.38501428091536 3.565863536292113 65.9669855820695 H 0.0 **** 0.06
29600 H 90.67240262452643 1.8235077880805761 66.19210363532875 H 0.0 **** 0.06
29601 C 93.80181049364381 47.35815067904775 51.786563000725174 C 0.0 **** -0.24
29602 H 94.75965196155548 47.68198278064051 51.37851775420979 H 0.0 **** 0.06
29603 H 93.11105455451485 48.20152453306035 51.80506170958945 H 0.0 **** 0.06
29604 H 93.94722716349591 46.98409068627035 52.7998401031643 H 0.0 **** 0.06
29605 H 93.39147695785402 46.56526138803443 51.161722768696045 H 0.0 **** 0.06
29606 C 62.82241096878818 67.6204059964781 7.891092110635768 C 0.0 **** -0.24
29607 H 62.40729499707839 67.51920246374885 6.888124021551917 H 0.0 **** 0.06
29608 H 62.35079891688732 68.46401462509635 8.39545008350143 H 0.0 **** 0.06
29609 H 63.89669837915468 67.79158809525643 7.823256774838384 H 0.0 **** 0.06
29610 H 62.633503695818554 66.70761395170643 8.455653078706234 H 0.0 **** 0.06
29611 C 10.58466025686441 92.02217100596303 29.249959676978655 C 0.0 **** -0.24
29612 H 10.374075471705083 91.911484525274 30.314278244387182 H 0.0 **** 0.06
29613 H 11.27901780951413 92.84856708229015 29.10178936193271 H 0.0 **** 0.06
29614 H 9.656067261872167 92.22568451275225 28.716234356082772 H 0.0 **** 0.06
29615 H 11.028019325489652 91.10090150495586 28.869699588906357 H 0.0 **** 0.06
29616 C 34.08822089147804 67.91506064888193 13.35354696359811 C 0.0 **** -0.24
29617 H 34.93372812649071 68.08591592520744 12.687372537358534 H 0.0 **** 0.06
29618 H 34.40519353060962 68.05736078661945 14.387082377946065 H 0.0 **** 0.06
29619 H 33.722862309920096 66.89613347620897 13.223159282861662 H 0.0 **** 0.06
29620 H 33.29174406590655 68.62014085873724 13.117625576391571 H 0.0 **** 0.06
29621 C 73.61913291030413 36.41074576557551 43.548936563271155 C 0.0 **** -0.24
29622 H 74.23614720516633 35.62994999563392 43.10452267837053 H 0.0 **** 0.06
29623 H 73.00513119262058 35.98123051433265 44.34125720203858 H 0.0 **** 0.06
29624 H 72.97595879481139 36.84434252754875 42.78447192677626 H 0.0 **** 0.06
29625 H 74.26164131098966 37.18589853007248 43.96774271382671 H 0.0 **** 0.06
29626 C 24.551421112463217 70.86801963822484 71.34397632726342 C 0.0 **** -0.24
29627 H 25.15749231228537 71.77114614532837 71.40979088953623 H 0.0 **** 0.06
29628 H 24.258376441055304 70.70105919536118 70.30696934593976 H 0.0 **** 0.06
29629 H 23.66037767685225 70.98339194679289 71.96012496861482 H 0.0 **** 0.06
29630 H 25.131111411356443 70.0150702717217 71.69947742393225 H 0.0 **** 0.06
29631 C 12.133569194604537 83.15522063660316 16.920481142238856 C 0.0 **** -0.24
29632 H 11.785880879036679 82.6733456420724 16.00692726308725 H 0.0 **** 0.06
29633 H 11.583122748242314 84.08356433760335 17.073556549502953 H 0.0 **** 0.06
29634 H 13.197931704860714 83.37277087610326 16.834704113783758 H 0.0 **** 0.06
29635 H 11.966026457358819 82.48906989570682 17.76805068532056 H 0.0 **** 0.06
29636 C 51.1445717133347 18.88319246594375 26.988281504457404 C 0.0 **** -0.24
29637 H 51.84508469300283 18.113873945727917 26.664281600336125 H 0.0 **** 0.06
29638 H 51.453935048135236 19.84859882182269 26.58674279798683 H 0.0 **** 0.06
29639 H 51.13395338145892 18.928887742861903 28.077892746610047 H 0.0 **** 0.06
29640 H 50.14587740038144 18.640319799748042 26.62491262207439 H 0.0 **** 0.06
29641 C 79.48928300924973 85.7338110928095 1.987644977002077 C 0.0 **** -0.24
29642 H 79.4031946887049 86.67317170869993 2.5328227123835916 H 0.0 **** 0.06
29643 H 79.8039565288912 85.93631174162525 0.963480195123438 H 0.0 **** 0.06
29644 H 78.52242732251429 85.23039586507741 1.977272275381992 H 0.0 **** 0.06
29645 H 80.22620950426429 85.09628142431313 2.4754703730545202 H 0.0 **** 0.06
29646 C 8.830919443395715 92.0711231924038 68.22326955878 C 0.0 **** -0.24
29647 H 8.136563600398615 92.24686492028667 69.04434820669223 H 0.0 **** 0.06
29648 H 9.852607817504673 92.21835050095018 68.57331865958258 H 0.0 **** 0.06
29649 H 8.619554729666282 92.7695417730825 67.41350055555495 H 0.0 **** 0.06
29650 H 8.714191292305545 91.0492019798418 67.86154037400016 H 0.0 **** 0.06
29651 C 85.47365758831512 53.53304344966105 32.637543703888966 C 0.0 **** -0.24
29652 H 85.01199529516902 53.27750945314341 33.59139626199042 H 0.0 **** 0.06
29653 H 86.47988373084365 53.913210069039394 32.811064959053404 H 0.0 **** 0.06
29654 H 84.8767732770167 54.297228009897026 32.13942977967636 H 0.0 **** 0.06
29655 H 85.52412834231063 52.64382284025069 32.00947381964052 H 0.0 **** 0.06
29656 C 73.59961193311673 30.05465609920313 17.180463776915566 C 0.0 **** -0.24
29657 H 74.66729016543835 29.865345608745763 17.29322078148079 H 0.0 **** 0.06
29658 H 73.18643013696041 29.374827163704232 16.43513510549537 H 0.0 **** 0.06
29659 H 73.4449512367521 31.084278852551883 16.85943513682293 H 0.0 **** 0.06
29660 H 73.09997405306135 29.893126518313743 18.13603042278613 H 0.0 **** 0.06
29661 C 97.2647438928843 35.03245577621925 100.02831011132344 C 0.0 **** -0.24
29662 H 96.52841093460037 34.88535273005675 100.81890982153445 H 0.0 **** 0.06
29663 H 97.68366524427327 34.068464341086326 99.73800017687574 H 0.0 **** 0.06
29664 H 98.06196627211102 35.6806093471281 100.39215047892876 H 0.0 **** 0.06
29665 H 96.78530730786764 35.49506535170809 99.16657799659939 H 0.0 **** 0.06
29666 C 40.39263084585468 32.02830660598519 20.517476204142408 C 0.0 **** -0.24
29667 H 40.56008952334497 31.824067391907448 21.575224922898357 H 0.0 **** 0.06
29668 H 39.50936954509052 32.65581593225146 20.404946992642138 H 0.0 **** 0.06
29669 H 40.241739621050044 31.087868057476058 19.98596923839127 H 0.0 **** 0.06
29670 H 41.260790495837114 32.54286893697528 20.106013203461014 H 0.0 **** 0.06
29671 C 31.11347507039389 19.54870337005198 75.70474205474247 C 0.0 **** -0.24
29672 H 31.4480279879983 20.579849546703315 75.58842209799133 H 0.0 **** 0.06
29673 H 30.145544447505074 19.536081638904847 76.20674150171567 H 0.0 **** 0.06
29674 H 31.840069400628295 18.996007127692394 76.30077138663148 H 0.0 **** 0.06
29675 H 31.019873770248694 19.084538888567238 74.72332344876307 H 0.0 **** 0.06
29676 C 69.89758420729825 78.77371232940831 57.48373531217188 C 0.0 **** -0.24
29677 H 70.07962036208886 78.66819799149107 58.55376849723995 H 0.0 **** 0.06
29678 H 69.46375035701502 79.75400380160795 57.28445346499278 H 0.0 **** 0.06
29679 H 69.20806670121851 77.99662319974703 57.15444142776696 H 0.0 **** 0.06
29680 H 70.83924931794047 78.6766428382578 56.9443980681936 H 0.0 **** 0.06
29681 C 62.13803193315567 0.9572965385534502 10.367306231964658 C 0.0 **** -0.24
29682 H 61.296219989186625 0.4524782790267068 10.842387937893296 H 0.0 **** 0.06
29683 H 62.61120391043613 1.6275196490037445 11.084602282130277 H 0.0 **** 0.06
29684 H 61.78081703898056 1.5320309346834051 9.512262177446349 H 0.0 **** 0.06
29685 H 62.862437469440295 0.21537477993389587 10.029122559140973 H 0.0 **** 0.06
29686 C 82.51517517248385 13.982494353599396 90.53652879031435 C 0.0 **** -0.24
29687 H 81.98450958278872 14.748103432150309 89.97006149962459 H 0.0 **** 0.06
29688 H 83.58468564174987 14.065187623405304 90.34555885676033 H 0.0 **** 0.06
29689 H 82.16609990556543 12.996175383133323 90.22837489484692 H 0.0 **** 0.06
29690 H 82.32314898544638 14.11903297407181 91.60019014134295 H 0.0 **** 0.06
29691 C 13.164683414826928 32.51957726581139 92.2613991293947 C 0.0 **** -0.24
29692 H 12.695695033334477 33.503650628734675 92.25484774683707 H 0.0 **** 0.06
29693 H 14.164283445099688 32.590935494116934 91.83253996991675 H 0.0 **** 0.06
29694 H 12.563780675945846 31.827201750672344 91.67122502609993 H 0.0 **** 0.06
29695 H 13.232778979387227 32.156782942474365 93.28731759610946 H 0.0 **** 0.06
29696 C 55.63992449590117 51.41863773871586 8.072828196547093 C 0.0 **** -0.24
29697 H 54.90160792670861 51.36134228838648 8.87246514437507 H 0.0 **** 0.06
29698 H 56.26951460438507 52.296341262751895 8.222532133674648 H 0.0 **** 0.06
29699 H 55.13014172226008 51.49487322385082 7.112175247103721 H 0.0 **** 0.06
29700 H 56.25865460485452 50.52084645220566 8.086292997886275 H 0.0 **** 0.06
29701 C 11.63268134854252 37.84996069380473 11.204745692661021 C 0.0 **** -0.24
29702 H 12.722315990394634 37.81454984388657 11.182862784691267 H 0.0 **** 0.06
29703 H 11.306882129410667 38.47517492972423 12.036716533937394 H 0.0 **** 0.06
29704 H 11.238880472781204 36.84189759901726 11.330312393915278 H 0.0 **** 0.06
29705 H 11.264959098483416 38.269722764835876 10.268461260893758 H 0.0 **** 0.06
29706 C 54.9153409019639 85.44685603981048 60.55642692266744 C 0.0 **** -0.24
29707 H 54.6679750766867 84.54425118932733 61.11491954113231 H 0.0 **** 0.06
29708 H 55.71440728669276 85.22711192402738 59.84688696790468 H 0.0 **** 0.06
29709 H 55.24621127310138 86.2226707105736 61.246902689693826 H 0.0 **** 0.06
29710 H 54.03468109698068 85.79354633185665 60.01584803654441 H 0.0 **** 0.06
29711 C 1.5578783402106593 78.0762910381851 34.163278365635136 C 0.0 **** -0.24
29712 H 2.3765237761936966 77.43325655074051 34.483613479072346 H 0.0 **** 0.06
29713 H 1.4952677714675673 78.07036660399683 33.07445226079227 H 0.0 **** 0.06
29714 H 1.7363734008145286 79.09355371470278 34.5106405786114 H 0.0 **** 0.06
29715 H 0.6213921396907436 77.70873245699951 34.58313511666057 H 0.0 **** 0.06
29716 C 54.54984265331663 23.123373719160497 5.767095877193981 C 0.0 **** -0.24
29717 H 54.393319238729546 22.472715950296333 4.905336390262789 H 0.0 **** 0.06
29718 H 55.59047365282735 23.44818129716174 5.791398159719904 H 0.0 **** 0.06
29719 H 54.317088402204305 22.57773743325845 6.680983635099267 H 0.0 **** 0.06
29720 H 53.89898414703459 23.99391261111566 5.687079515155631 H 0.0 **** 0.06
29721 C 10.465357154694658 45.694141422664046 42.78489978326877 C 0.0 **** -0.24
29722 H 11.306378800894421 45.09227564133377 42.44043270486006 H 0.0 **** 0.06
29723 H 9.613260095619381 45.04400362694557 42.986803023033076 H 0.0 **** 0.06
29724 H 10.196549193161843 46.41710888176755 42.01490971396805 H 0.0 **** 0.06
29725 H 10.744883619838276 46.220754752911404 43.697398411125675 H 0.0 **** 0.06
29726 C 28.51042484358281 54.685471346514475 41.80406835660974 C 0.0 **** -0.24
29727 H 28.77293418066015 55.503951172204154 42.473630121960056 H 0.0 **** 0.06
29728 H 29.258034049597356 54.60812550025514 41.01431173963273 H 0.0 **** 0.06
29729 H 27.532997595061296 54.87832772104673 41.36153609925699 H 0.0 **** 0.06
29730 H 28.476588860448132 53.75218410846557 42.366353391443646 H 0.0 **** 0.06
29731 C 106.64247901848162 6.176697181026304 7.220047180557913 C 0.0 **** -0.24
29732 H 106.527716562997 5.6952516116895495 8.190785088712346 H 0.0 **** 0.06
29733 H 106.54580127894575 7.25636443860982 7.335733976715062 H 0.0 **** 0.06
29734 H 105.87138806638939 5.812556829999991 6.54116726812839 H 0.0 **** 0.06
29735 H 107.6250671967646 5.940388137088425 6.812317040773934 H 0.0 **** 0.06
29736 C 60.13255580454455 48.47479534353815 60.63836575865355 C 0.0 **** -0.24
29737 H 59.87065503862834 49.04300613784963 59.744602370166206 H 0.0 **** 0.06
29738 H 59.67916491162535 48.9438961660762 61.511597978112775 H 0.0 **** 0.06
29739 H 61.215957042071835 48.46076344694856 60.75426749979033 H 0.0 **** 0.06
29740 H 59.76357938673124 47.45432515597656 60.53993640623622 H 0.0 **** 0.06
29741 C 68.96031612251784 22.398520008809925 22.92382595053924 C 0.0 **** -0.24
29742 H 67.9812042875003 22.670529638982487 23.318933787194766 H 0.0 **** 0.06
29743 H 69.53894445541061 23.303022348634784 22.735037216210813 H 0.0 **** 0.06
29744 H 68.83454993916894 21.84646239092021 21.99292929165479 H 0.0 **** 0.06
29745 H 69.48359078442411 21.77543269343434 23.64893366679705 H 0.0 **** 0.06
29746 C 49.43484156328733 5.670783262654279 42.83858729762707 C 0.0 **** -0.24
29747 H 50.46377709989292 5.332537111438043 42.958497922993615 H 0.0 **** 0.06
29748 H 48.81725006370033 4.840222918067079 42.497988420057226 H 0.0 **** 0.06
29749 H 49.39934286118306 6.475640771234836 42.10496029758406 H 0.0 **** 0.06
29750 H 49.059620028286865 6.035188761628978 43.79500082399886 H 0.0 **** 0.06
29751 C 7.520823926135961 112.30104551193799 90.04646016196315 C 0.0 **** -0.24
29752 H 6.665495801878478 111.72695237608657 89.68858263297469 H 0.0 **** 0.06
29753 H 7.3100808857169 112.68050568043903 91.04721429947469 H 0.0 **** 0.06
29754 H 7.704218314971172 113.13700103686641 89.3720135706291 H 0.0 **** 0.06
29755 H 8.401270535284993 111.6590988887201 90.07882841724941 H 0.0 **** 0.06
29756 C 27.075031571273165 68.97156964629252 25.648425124465916 C 0.0 **** -0.24
29757 H 26.840176474475562 70.0322845666334 25.741179503748867 H 0.0 **** 0.06
29758 H 26.17375897680035 68.38409043891465 25.823910986247938 H 0.0 **** 0.06
29759 H 27.83355365635918 68.70210665720018 26.382813501074423 H 0.0 **** 0.06
29760 H 27.451546377852004 68.76981970338454 24.64494865436464 H 0.0 **** 0.06
29761 C 95.86857384254427 74.56509705927732 48.68346855154974 C 0.0 **** -0.24
29762 H 96.51789569271082 75.1967702974045 49.288639911158384 H 0.0 **** 0.06
29763 H 95.90192626970759 74.89838417230129 47.64661771494062 H 0.0 **** 0.06
29764 H 94.84636064426505 74.63217570261264 49.05498165370882 H 0.0 **** 0.06
29765 H 96.20968326756585 73.53158915451593 48.74424819890832 H 0.0 **** 0.06
29766 C 32.331908961258705 20.601559691478244 67.54271081672934 C 0.0 **** -0.24
29767 H 33.25378983115115 20.63653529704226 68.12334991775725 H 0.0 **** 0.06
29768 H 32.433192462157365 21.235346664167075 66.66278070092724 H 0.0 **** 0.06
29769 H 31.50355845127666 20.958944090914212 68.15608209692095 H 0.0 **** 0.06
29770 H 32.13617308402013 19.57463786127255 67.23269878315219 H 0.0 **** 0.06
29771 C 20.805955725724182 68.65365138216077 48.697199852223946 C 0.0 **** -0.24
29772 H 19.830704994076765 68.60002037785378 48.21371449007245 H 0.0 **** 0.06
29773 H 20.85341525976895 67.91783145073813 49.500364248809944 H 0.0 **** 0.06
29774 H 20.953098111291396 69.65176199236984 49.10858368965302 H 0.0 **** 0.06
29775 H 21.586780014031163 68.44369971699697 47.96558918332016 H 0.0 **** 0.06
29776 C 7.703832271219369 43.2749222898447 72.20820344828931 C 0.0 **** -0.24
29777 H 7.732258575506478 44.0362494383541 71.42853793066044 H 0.0 **** 0.06
29778 H 8.647734338442518 43.2774838391716 72.75344534306882 H 0.0 **** 0.06
29779 H 7.547723947954523 42.2966661990653 71.75428433438486 H 0.0 **** 0.06
29780 H 6.885544881252855 43.4908539433516 72.89541497291236 H 0.0 **** 0.06
29781 C 98.61380130004653 88.7325907536723 10.215509611187812 C 0.0 **** -0.24
29782 H 98.20663825756145 89.43144011538413 9.484537492507442 H 0.0 **** 0.06
29783 H 99.69605791561258 88.85164348699993 10.267427402516418 H 0.0 **** 0.06
29784 H 98.37341992243097 87.71245959349574 9.916675912994577 H 0.0 **** 0.06
29785 H 98.17782259157599 88.93691140833721 11.193544396395865 H 0.0 **** 0.06
29786 C 64.39927200076721 36.151489206790956 50.16627001803971 C 0.0 **** -0.24
29787 H 63.43778087138787 35.69429377395073 50.39911441182886 H 0.0 **** 0.06
29788 H 64.74233671907416 35.800294129204275 49.1928836458909 H 0.0 **** 0.06
29789 H 65.12772446261891 35.87603008211656 50.92982470009855 H 0.0 **** 0.06
29790 H 64.28995557417238 37.235906733496535 50.142840194014866 H 0.0 **** 0.06
29791 C 24.551351706188484 51.37243673715076 67.92701087261946 C 0.0 **** -0.24
29792 H 24.24893332223195 50.32581543931367 67.97314568215648 H 0.0 **** 0.06
29793 H 25.392665556403845 51.537456794711595 68.5990590074918 H 0.0 **** 0.06
29794 H 23.716505368552244 52.0058402164415 68.22739567833071 H 0.0 **** 0.06
29795 H 24.8461585352827 51.620663763234695 66.9076122047804 H 0.0 **** 0.06
29796 C 75.64539764365676 46.073107030344886 15.882350877546514 C 0.0 **** -0.24
29797 H 74.7302282553174 46.163865737835835 16.467092029009734 H 0.0 **** 0.06
29798 H 76.49914005473659 46.360905944520255 16.495743950446297 H 0.0 **** 0.06
29799 H 75.58567036113931 46.726235814592684 15.011678241582388 H 0.0 **** 0.06
29800 H 75.76492497900122 45.040314358467555 15.554529401104617 H 0.0 **** 0.06
29801 C 14.963367172721394 4.60905403420881 59.45187619559374 C 0.0 **** -0.24
29802 H 14.7713703038923 4.4504726583839584 58.39095465804388 H 0.0 **** 0.06
29803 H 16.038805171788226 4.6404069982835985 59.625702178654535 H 0.0 **** 0.06
29804 H 14.526127575321183 3.792201797092561 60.02605591242457 H 0.0 **** 0.06
29805 H 14.517165639883835 5.553134683075045 59.76479203325164 H 0.0 **** 0.06
29806 C 18.17807013560015 89.43938776467567 59.359332650287165 C 0.0 **** -0.24
29807 H 17.115698571251315 89.19561848068346 59.34666017366026 H 0.0 **** 0.06
29808 H 18.76167547684662 88.52085462206352 59.29122164785981 H 0.0 **** 0.06
29809 H 18.421353432051077 89.9567891971679 60.28682676359667 H 0.0 **** 0.06
29810 H 18.412797929960263 90.0826617029299 58.51173731757893 H 0.0 **** 0.06
29811 C 108.9817600502615 35.38166094906121 16.90166160936687 C 0.0 **** -0.24
29812 H 109.28011149295543 34.64566362063338 17.647765957137096 H 0.0 **** 0.06
29813 H 108.39040137754117 34.89321378547578 16.127089671774655 H 0.0 **** 0.06
29814 H 109.87089458084097 35.826247017692985 16.45403405065619 H 0.0 **** 0.06
29815 H 108.38642415960969 36.160351347118734 17.377659286580013 H 0.0 **** 0.06
29816 C 4.6578309361387085 89.95851450267105 79.3682004876012 C 0.0 **** -0.24
29817 H 5.051631957464707 88.94647673995516 79.27341271169823 H 0.0 **** 0.06
29818 H 4.691252518416775 90.45239496980534 78.3967266016501 H 0.0 **** 0.06
29819 H 5.263926781569765 90.51813106741182 80.08132500068996 H 0.0 **** 0.06
29820 H 3.6274822016985837 89.91661453663971 79.71992795361763 H 0.0 **** 0.06
29821 C 19.098203996361576 0.09026572046624892 21.62405212405666 C 0.0 **** -0.24
29822 H 20.125327981376543 -0.09539610509875729 21.94046242547887 H 0.0 **** 0.06
29823 H 18.758338274583906 1.0418462356147131 22.03366565346073 H 0.0 **** 0.06
29824 H 18.456264991087124 -0.7118534602064273 21.987363956636955 H 0.0 **** 0.06
29825 H 19.054805538371255 0.12636788596675785 20.53623343127805 H 0.0 **** 0.06
29826 C 85.11450482176184 50.374199136296674 23.85699322745498 C 0.0 **** -0.24
29827 H 85.08473433778988 49.30095541095136 23.67156950113008 H 0.0 **** 0.06
29828 H 84.47707247436469 50.61348011580231 24.7081912100997 H 0.0 **** 0.06
29829 H 84.7585032197182 50.90605192755703 22.97486861188932 H 0.0 **** 0.06
29830 H 86.13934643479965 50.676803059542664 24.074784392534156 H 0.0 **** 0.06
29831 C 5.184028942484247 31.369032321612735 15.210455075034858 C 0.0 **** -0.24
29832 H 5.087266194972699 32.41269011805608 15.510343033869617 H 0.0 **** 0.06
29833 H 5.652602942589056 30.80183003067043 16.016483312409406 H 0.0 **** 0.06
29834 H 5.801115577641156 31.304470422728855 14.31512432646025 H 0.0 **** 0.06
29835 H 4.196572275894653 30.95738190747963 15.002489598677641 H 0.0 **** 0.06
29836 C 93.27090551410305 18.70874883675597 6.773739339860498 C 0.0 **** -0.24
29837 H 93.5985646085619 19.31851372359053 7.6158893898131055 H 0.0 **** 0.06
29838 H 92.9336150298588 19.35746826006756 5.965106140749015 H 0.0 **** 0.06
29839 H 92.45064493499552 18.06442571231665 7.089501370063516 H 0.0 **** 0.06
29840 H 94.101958392933 18.0950742188756 6.4256502949562275 H 0.0 **** 0.06
29841 C 106.46223263268688 3.786670513769936 24.97988599872582 C 0.0 **** -0.24
29842 H 107.30700771105161 3.199744321517521 25.339927776786396 H 0.0 **** 0.06
29843 H 106.79558525283646 4.797191765242125 24.74403814680028 H 0.0 **** 0.06
29844 H 105.69310501758278 3.8279081225611638 25.751240371963945 H 0.0 **** 0.06
29845 H 106.05135819192566 3.32106687922729 24.08339288257352 H 0.0 **** 0.06
29846 C 49.20613946624067 87.677548878079 61.44531277014821 C 0.0 **** -0.24
29847 H 49.39231927452201 87.38919991728196 62.47952662908278 H 0.0 **** 0.06
29848 H 48.16070671281406 87.48823453828695 61.19898797503382 H 0.0 **** 0.06
29849 H 49.84636481508201 87.09261735042554 60.785098418741306 H 0.0 **** 0.06
29850 H 49.424491795211225 88.7370362551274 61.318580599545406 H 0.0 **** 0.06
29851 C 79.66201974269015 96.5984499837434 4.271619194508133 C 0.0 **** -0.24
29852 H 79.36687513546153 96.90242640672366 5.2753484017031695 H 0.0 **** 0.06
29853 H 79.69860182813667 97.47445201989566 3.6233772484496285 H 0.0 **** 0.06
29854 H 78.9364019657499 95.88625717933547 3.879156939283206 H 0.0 **** 0.06
29855 H 80.64655315560165 96.132016489781 4.308377197606063 H 0.0 **** 0.06
29856 C 22.26784153338194 68.29211646840326 27.21110405480377 C 0.0 **** -0.24
29857 H 23.20959635527251 68.40550106827021 27.747273923905965 H 0.0 **** 0.06
29858 H 21.55943217246448 69.04507128654416 27.557777760131813 H 0.0 **** 0.06
29859 H 21.86191065168115 67.29786527647707 27.397372869075127 H 0.0 **** 0.06
29860 H 22.43997514118641 68.41989310407303 26.142873516123444 H 0.0 **** 0.06
29861 C 3.34220494249694 61.6463934850039 95.11918598983513 C 0.0 **** -0.24
29862 H 2.441074781780028 62.24339627213129 95.26461150359151 H 0.0 **** 0.06
29863 H 3.250932374932228 60.711355769813395 95.67184155757738 H 0.0 **** 0.06
29864 H 4.207798092429712 62.20127363460125 95.48213220045568 H 0.0 **** 0.06
29865 H 3.4668336490613125 61.430659720335655 94.05806487747944 H 0.0 **** 0.06
29866 C 72.7443659837636 10.309641688730323 106.48658049365805 C 0.0 **** -0.24
29867 H 72.51551021605763 10.956533358577559 105.63897347289637 H 0.0 **** 0.06
29868 H 72.77708790427963 10.905398038877166 107.39877402376239 H 0.0 **** 0.06
29869 H 73.71095490163867 9.832104446753817 106.3290324614264 H 0.0 **** 0.06
29870 H 71.97171156418639 9.546547884496675 106.57849547536671 H 0.0 **** 0.06
29871 C 107.82490244697414 90.40077359424282 99.5268757464471 C 0.0 **** -0.24
29872 H 107.0295828287509 89.68823260414081 99.74251283771588 H 0.0 **** 0.06
29873 H 107.38626573552528 91.35726754626381 99.2384391336721 H 0.0 **** 0.06
29874 H 108.44055461457788 90.02228681328819 98.71095139348319 H 0.0 **** 0.06
29875 H 108.44179447497959 90.53621620832865 100.4151751929308 H 0.0 **** 0.06
29876 C 43.781219771747764 80.7022831925737 106.59387040353377 C 0.0 **** -0.24
29877 H 42.80259491933058 80.42621729927541 106.98509328949731 H 0.0 **** 0.06
29878 H 43.67308633924963 81.53843095683328 105.9031602933963 H 0.0 **** 0.06
29879 H 44.21694328559469 79.85145983799478 106.06987513524692 H 0.0 **** 0.06
29880 H 44.43326710997229 80.99368180995134 107.41808977890439 H 0.0 **** 0.06
29881 C 0.3000150275610167 8.967312154055998 18.827282204231437 C 0.0 **** -0.24
29882 H 0.990673852900386 9.5921075987437 18.261368427584387 H 0.0 **** 0.06
29883 H -0.5488644891909189 9.567521709219267 19.154380707471574 H 0.0 **** 0.06
29884 H 0.8119838505623989 8.556480466547187 19.698528865164178 H 0.0 **** 0.06
29885 H -0.05277987532991801 8.151542383624667 18.19609297621119 H 0.0 **** 0.06
29886 C 79.43256746873385 87.47974403646606 46.300797120703294 C 0.0 **** -0.24
29887 H 78.58182992340957 88.07993189282718 45.97641213597761 H 0.0 **** 0.06
29888 H 80.27614244209974 87.65674893158848 45.633502636664815 H 0.0 **** 0.06
29889 H 79.163502045012 86.42441292574301 46.27573006282438 H 0.0 **** 0.06
29890 H 79.70810213648053 87.76077530451585 47.31793208718162 H 0.0 **** 0.06
29891 C 57.016693770779746 89.84946549601062 37.161472248868265 C 0.0 **** -0.24
29892 H 57.295825736183694 89.5024188840768 38.156968334518176 H 0.0 **** 0.06
29893 H 56.396681617570586 90.74163783593741 37.248712316978185 H 0.0 **** 0.06
29894 H 56.45774631740833 89.06619200737322 36.64768544584448 H 0.0 **** 0.06
29895 H 57.916559688760266 90.08559345704072 36.59348166193146 H 0.0 **** 0.06
29896 C 51.72059944808271 29.518541432582794 28.32640705455688 C 0.0 **** -0.24
29897 H 50.913801108868086 29.70831148121863 27.618522774159032 H 0.0 **** 0.06
29898 H 52.452111772122294 28.84866650632253 27.872319174890464 H 0.0 **** 0.06
29899 H 51.314365118278545 29.05746487051799 29.2258226291232 H 0.0 **** 0.06
29900 H 52.20361127641519 30.46059116248955 28.587541728270367 H 0.0 **** 0.06
29901 C 94.94016854513242 84.1343670656338 8.58821123406373 C 0.0 **** -0.24
29902 H 95.34308393400963 83.67833721467213 9.49181141119402 H 0.0 **** 0.06
29903 H 95.71461606589182 84.16711281434846 7.821818939822462 H 0.0 **** 0.06
29904 H 94.60424870535101 85.14731612550852 8.81038338005134 H 0.0 **** 0.06
29905 H 94.09781168310312 83.54268978555973 8.227774851754335 H 0.0 **** 0.06
29906 C 46.50880731054261 61.15760170873264 43.38082353972959 C 0.0 **** -0.24
29907 H 46.7611496157634 62.173884334398906 43.07763812788812 H 0.0 **** 0.06
29908 H 45.48716273455537 60.931317602809514 43.07664888857681 H 0.0 **** 0.06
29909 H 46.592919762531324 61.07094071454918 44.464422817696004 H 0.0 **** 0.06
29910 H 47.19495550631953 60.45543698764098 42.90650952177356 H 0.0 **** 0.06
29911 C 25.04503691510314 89.00366408141034 43.09609129951974 C 0.0 **** -0.24
29912 H 24.43520651896877 88.73875411299537 42.23297431666191 H 0.0 **** 0.06
29913 H 25.287462815734386 88.10327353064338 43.65946937727213 H 0.0 **** 0.06
29914 H 24.492727952485353 89.69387512336283 43.73271351002629 H 0.0 **** 0.06
29915 H 25.96592148560225 89.47984102913864 42.75735158789877 H 0.0 **** 0.06
29916 C 6.577406944165848 31.283912479075077 89.2967202691915 C 0.0 **** -0.24
29917 H 6.114867621326004 30.533408332158338 88.65664666295058 H 0.0 **** 0.06
29918 H 6.538506730779979 30.94995774188535 90.3343051971699 H 0.0 **** 0.06
29919 H 6.040291263821434 32.22685430118258 89.19764545579756 H 0.0 **** 0.06
29920 H 7.6169341889403075 31.42400700280622 88.99846185132367 H 0.0 **** 0.06
29921 C 0.14667016308803227 28.111786537758263 26.303122223642134 C 0.0 **** -0.24
29922 H 0.9256236410622023 27.655512388908477 26.914471390628137 H 0.0 **** 0.06
29923 H 0.21175331722903934 27.726321211899375 25.284710635978236 H 0.0 **** 0.06
29924 H 0.2806642421123513 29.193436066956025 26.29179661520142 H 0.0 **** 0.06
29925 H -0.8307762119775361 27.87063731745272 26.7211593498114 H 0.0 **** 0.06
29926 C 39.14448409784839 21.33962270778096 79.1915787636598 C 0.0 **** -0.24
29927 H 39.87509074656887 20.753034318241248 78.63395486146379 H 0.0 **** 0.06
29928 H 39.65408712877485 21.914095374876922 79.96443983423202 H 0.0 **** 0.06
29929 H 38.418938637021625 20.670925178792857 79.65406309042766 H 0.0 **** 0.06
29930 H 38.63032326050981 22.019100166258312 78.51213606315756 H 0.0 **** 0.06
29931 C 68.57997482904543 62.93030374049272 78.48402437165217 C 0.0 **** -0.24
29932 H 69.14111128863433 63.266714212013824 79.35624928468081 H 0.0 **** 0.06
29933 H 69.11367756972129 62.111059426742315 78.00297396954343 H 0.0 **** 0.06
29934 H 68.47176500866635 63.75638078766491 77.78089155373334 H 0.0 **** 0.06
29935 H 67.59392013524607 62.58824528815262 78.79748811017305 H 0.0 **** 0.06
29936 C 49.11898436621123 48.62356040657744 83.78270347236383 C 0.0 **** -0.24
29937 H 48.96973926610327 49.5711224948688 84.30091039218433 H 0.0 **** 0.06
29938 H 49.5782505593173 48.81004283326865 82.81254307809894 H 0.0 **** 0.06
29939 H 48.15636812933435 48.13096737636289 83.6420921979282 H 0.0 **** 0.06
29940 H 49.7708078111017 47.98411898618781 84.37779106603273 H 0.0 **** 0.06
29941 C 80.25296374680019 66.19508304324091 92.16208543391096 C 0.0 **** -0.24
29942 H 80.64971320982963 66.41135475203001 91.16955942986644 H 0.0 **** 0.06
29943 H 80.06441680078052 67.13075238568419 92.68863014267282 H 0.0 **** 0.06
29944 H 80.97723542299215 65.602639175408 92.72107934113734 H 0.0 **** 0.06
29945 H 79.32142334613442 65.63716921118686 92.06670184315482 H 0.0 **** 0.06
29946 C 44.11188339026615 56.92998380031908 81.37433993703425 C 0.0 **** -0.24
29947 H 44.31382307770163 56.44338265254798 80.41964567900294 H 0.0 **** 0.06
29948 H 44.69993188324319 56.451733558372254 82.15808294591588 H 0.0 **** 0.06
29949 H 43.05133766875281 56.84103896566192 81.60945899195292 H 0.0 **** 0.06
29950 H 44.38243501794303 57.98336702930025 81.308819536247 H 0.0 **** 0.06
29951 C 36.81612435628361 43.45095408429563 99.08554736582369 C 0.0 **** -0.24
29952 H 37.869650583779816 43.26269513760002 98.87941043942453 H 0.0 **** 0.06
29953 H 36.70509570143071 44.4378135774578 99.53708084370112 H 0.0 **** 0.06
29954 H 36.439790043780164 42.6926811161581 99.77168360609971 H 0.0 **** 0.06
29955 H 36.25150080074937 43.41197053326732 98.15492186892743 H 0.0 **** 0.06
29956 C 44.47292515135146 73.57671126430216 29.59477349490041 C 0.0 **** -0.24
29957 H 43.7326316808971 74.37543545126493 29.556281873079342 H 0.0 **** 0.06
29958 H 44.18879399368981 72.85381281871162 30.36019871914307 H 0.0 **** 0.06
29959 H 45.44906847764585 73.99727170560763 29.836611286975604 H 0.0 **** 0.06
29960 H 44.52132861782519 73.07938865437151 28.62633109359801 H 0.0 **** 0.06
29961 C 32.60459862813428 78.3564302230576 57.71850805527424 C 0.0 **** -0.24
29962 H 33.2542691534154 77.54303943269781 57.397830756214034 H 0.0 **** 0.06
29963 H 31.725543037538785 77.94504122747375 58.21571808611213 H 0.0 **** 0.06
29964 H 32.292751793006694 78.93590093964147 56.84966133695889 H 0.0 **** 0.06
29965 H 33.14467819776797 79.00235859230915 58.41028471993445 H 0.0 **** 0.06
29966 C 107.14910604128433 74.07741454400076 81.58292270271659 C 0.0 **** -0.24
29967 H 106.17280124484546 74.13408738685533 82.06392634396317 H 0.0 **** 0.06
29968 H 107.6319814121876 73.1363209517109 81.84971798822119 H 0.0 **** 0.06
29969 H 107.76817420736113 74.91078157546619 81.91708951836046 H 0.0 **** 0.06
29970 H 107.0247529013329 74.1279838836615 80.50062121901433 H 0.0 **** 0.06
29971 C 97.99299793945212 101.15390625537304 100.50540292258083 C 0.0 **** -0.24
29972 H 97.07282567378928 101.34548880926164 99.95342872399274 H 0.0 **** 0.06
29973 H 98.60167867108231 102.0579387384428 100.52256170657176 H 0.0 **** 0.06
29974 H 98.54680143541555 100.35156871535168 100.01732548891906 H 0.0 **** 0.06
29975 H 97.75000432484401 100.85885531199992 101.52620037322706 H 0.0 **** 0.06
29976 C 25.53968089315873 80.69484230736694 6.210234239723725 C 0.0 **** -0.24
29977 H 25.493136921844467 79.61748581899948 6.053438167365963 H 0.0 **** 0.06
29978 H 26.38966175557664 81.10477661790657 5.663476650728885 H 0.0 **** 0.06
29979 H 25.65738151417088 80.90234860259147 7.2735385510068475 H 0.0 **** 0.06
29980 H 24.61874055683876 81.15381279337265 5.850223967562453 H 0.0 **** 0.06
29981 C 86.17462177995475 85.13167765541164 16.731248369399538 C 0.0 **** -0.24
29982 H 85.86550929504193 86.15587378935527 16.52462772533795 H 0.0 **** 0.06
29983 H 85.35238914245136 84.5919203167685 17.202113480161827 H 0.0 **** 0.06
29984 H 87.03470415401688 85.13923071914328 17.40060599860675 H 0.0 **** 0.06
29985 H 86.44437369125376 84.63778492735878 15.797323150139547 H 0.0 **** 0.06
29986 C 92.4555107938098 0.6818186361794005 99.82759656710363 C 0.0 **** -0.24
29987 H 93.08862018805056 0.4775046887978647 100.69027647355321 H 0.0 **** 0.06
29988 H 91.41358384508825 0.7324836254713887 100.14561818735595 H 0.0 **** 0.06
29989 H 92.573412384645 -0.11489496586330006 99.09312393932734 H 0.0 **** 0.06
29990 H 92.74581585834645 1.633348341150679 99.38085318916868 H 0.0 **** 0.06
29991 C 1.0989814448444406 49.30090210954286 0.773453377914044 C 0.0 **** -0.24
29992 H 2.0156312958082765 49.60052946057597 1.2821300228597998 H 0.0 **** 0.06
29993 H 0.5018792282257749 48.67705328205767 1.4381337070385118 H 0.0 **** 0.06
29994 H 1.3509752641157036 48.73757280904661 -0.1255453190251723 H 0.0 **** 0.06
29995 H 0.5301184771817447 50.18900897971353 0.49837612434845724 H 0.0 **** 0.06
29996 C 73.41201795654936 76.44228513195398 29.71346067197379 C 0.0 **** -0.24
29997 H 72.44902667952209 76.69198227898403 29.268335397698422 H 0.0 **** 0.06
29998 H 73.25129333616229 75.88412841139177 30.636290077376373 H 0.0 **** 0.06
29999 H 73.95854933895825 77.35919762447392 29.934144427969443 H 0.0 **** 0.06
30000 H 73.988038552467 75.83487195708315 29.015824046921637 H 0.0 **** 0.06
30001 C 9.754957612511475 101.96010135971324 75.1177888799447 C 0.0 **** -0.24
30002 H 10.372188398108904 101.78003191835248 75.9988596109495 H 0.0 **** 0.06
30003 H 8.862271143413636 102.51422182712886 75.40758321183884 H 0.0 **** 0.06
30004 H 9.464159929595638 101.00662742576355 74.67775193882659 H 0.0 **** 0.06
30005 H 10.322656829338996 102.53960356944742 74.3899446904297 H 0.0 **** 0.06
30006 C 74.22170238358996 95.98990772862379 106.16312792363266 C 0.0 **** -0.24
30007 H 73.94706946082925 95.10938000647457 106.74362431186006 H 0.0 **** 0.06
30008 H 73.39984856500308 96.7051175429828 106.17743034718853 H 0.0 **** 0.06
30009 H 74.43056102544102 95.69519603924527 105.13445182849566 H 0.0 **** 0.06
30010 H 75.11054234472323 96.44797301081968 106.59782569367229 H 0.0 **** 0.06
30011 C 79.910651224525 63.669103075270016 96.7792142469554 C 0.0 **** -0.24
30012 H 79.53794759315926 63.45134669595001 95.77811506299659 H 0.0 **** 0.06
30013 H 79.39890064180912 63.033060009475776 97.50253232069758 H 0.0 **** 0.06
30014 H 79.72130727655744 64.71540130838531 97.01694142228726 H 0.0 **** 0.06
30015 H 80.98164789916865 63.47515301250468 96.81783774464881 H 0.0 **** 0.06
30016 C 79.08490648805883 37.67736469692483 11.11543460795788 C 0.0 **** -0.24
30017 H 79.06863475354493 38.76664065082245 11.06261794180719 H 0.0 **** 0.06
30018 H 78.27204129188951 37.33398466188677 11.756397003840902 H 0.0 **** 0.06
30019 H 80.03785476952802 37.34804874101715 11.528114742568448 H 0.0 **** 0.06
30020 H 78.9587463988511 37.26366740190789 10.11502641278095 H 0.0 **** 0.06
30021 C 23.962925225389224 88.07819452637915 22.795464516247716 C 0.0 **** -0.24
30022 H 24.35185858611104 87.17677955126868 22.321503237873966 H 0.0 **** 0.06
30023 H 23.3052805931278 87.80082811772098 23.619379446256637 H 0.0 **** 0.06
30024 H 23.40200693112302 88.65963165018769 22.063768591362873 H 0.0 **** 0.06
30025 H 24.79178380384892 88.67411812794819 23.17566160605624 H 0.0 **** 0.06
30026 C 51.292618824087626 112.27697230762874 88.49025102318743 C 0.0 **** -0.24
30027 H 50.337034371806396 111.76139905811323 88.38951857817955 H 0.0 **** 0.06
30028 H 51.711636736527176 112.07497237009096 89.47541717040352 H 0.0 **** 0.06
30029 H 51.13946584617414 113.35005300693757 88.37257601436386 H 0.0 **** 0.06
30030 H 51.9793222530837 111.92074208120397 87.72194909504694 H 0.0 **** 0.06
30031 C 16.93868332667435 88.59881869703827 110.72039656788799 C 0.0 **** -0.24
30032 H 17.633667651601883 88.87620451351825 111.512516664084 H 0.0 **** 0.06
30033 H 17.37872940326625 88.83964390272456 109.75136292257515 H 0.0 **** 0.06
30034 H 16.00772139483098 89.15162137429093 110.8445152513344 H 0.0 **** 0.06
30035 H 16.73622420929442 87.52943101130552 110.77231598794565 H 0.0 **** 0.06
30036 C 75.12933158756823 15.17193134160022 51.875729775097966 C 0.0 **** -0.24
30037 H 75.6946534095859 15.801615341160222 51.18945240461551 H 0.0 **** 0.06
30038 H 74.06801600174785 15.230971270050357 51.63299134938066 H 0.0 **** 0.06
30039 H 75.28899342617657 15.515792977855725 52.898256415170664 H 0.0 **** 0.06
30040 H 75.46762716334234 14.139806922481643 51.783184179986705 H 0.0 **** 0.06
30041 C 1.5898293111960191 46.78664671377476 51.51655506168629 C 0.0 **** -0.24
30042 H 0.850262674080569 46.12372867969873 51.066518055124696 H 0.0 **** 0.06
30043 H 1.5657527748557527 47.75265864145297 51.011656360438565 H 0.0 **** 0.06
30044 H 2.581150476584389 46.346535516594486 51.413245752576884 H 0.0 **** 0.06
30045 H 1.3600237633801964 46.922213564545984 52.572964251855275 H 0.0 **** 0.06
30046 C 106.71312168914774 12.554966628632997 27.235424977855374 C 0.0 **** -0.24
30047 H 106.82007774739306 12.200132836114136 26.210352408712424 H 0.0 **** 0.06
30048 H 105.66054579355296 12.53289781382233 27.519974469341605 H 0.0 **** 0.06
30049 H 107.08747513077816 13.576990900645399 27.306568287335097 H 0.0 **** 0.06
30050 H 107.2847779823487 11.911827929406144 27.903420488724123 H 0.0 **** 0.06
30051 C 11.108090100611946 78.6058031880888 96.61494618409918 C 0.0 **** -0.24
30052 H 11.097889551203082 79.61983228429813 97.01720785018867 H 0.0 **** 0.06
30053 H 11.865441185189866 78.53301453861843 95.83364815829012 H 0.0 **** 0.06
30054 H 10.129162854785989 78.37260113457918 96.1947561033925 H 0.0 **** 0.06
30055 H 11.339316331138207 77.9004704100561 97.4129991133207 H 0.0 **** 0.06
30056 C 56.06345558159251 37.596761992240715 109.55720392934046 C 0.0 **** -0.24
30057 H 56.633878387559264 36.89142780774779 110.16186161949906 H 0.0 **** 0.06
30058 H 56.24149576006113 38.61067467611309 109.91710283015681 H 0.0 **** 0.06
30059 H 55.001501229499155 37.36513959574057 109.63457555440772 H 0.0 **** 0.06
30060 H 56.37801694863424 37.51972403007511 108.51619686139884 H 0.0 **** 0.06
30061 C 77.70200903523639 100.15459972482415 80.81670516260272 C 0.0 **** -0.24
30062 H 78.39103977103036 100.51404933141382 81.58076274894051 H 0.0 **** 0.06
30063 H 78.0894311867388 100.40966543372247 79.82955773889529 H 0.0 **** 0.06
30064 H 76.72793578155591 100.62391031410326 80.95609052579056 H 0.0 **** 0.06
30065 H 77.6002136831599 99.07277680956193 80.89912628629924 H 0.0 **** 0.06
30066 C 60.221121209475 50.38081801445106 21.367435423625224 C 0.0 **** -0.24
30067 H 59.267400852939375 50.09725059402378 21.81528866857204 H 0.0 **** 0.06
30068 H 60.89522643792847 50.738438018642206 22.14588868133945 H 0.0 **** 0.06
30069 H 60.05714996021885 51.172230829757886 20.63627568827131 H 0.0 **** 0.06
30070 H 60.66138638028568 49.51536983768744 20.873692233177405 H 0.0 **** 0.06
30071 C 65.20142383641252 59.4563645866177 8.962587687555772 C 0.0 **** -0.24
30072 H 65.55220235550831 60.053881392668195 8.12196922010364 H 0.0 **** 0.06
30073 H 64.84896778013939 60.116415153696416 9.755831928120926 H 0.0 **** 0.06
30074 H 66.02028343251135 58.84200295433019 9.33876479280158 H 0.0 **** 0.06
30075 H 64.385127469405 58.81280013412785 8.635229470388417 H 0.0 **** 0.06
30076 C 69.57773912880185 2.1918799147004506 77.2876411488229 C 0.0 **** -0.24
30077 H 70.53026040063654 1.881835563031359 77.7161782624371 H 0.0 **** 0.06
30078 H 69.67947738108498 3.1885706886906746 76.85852786980988 H 0.0 **** 0.06
30079 H 68.81606000146499 2.2076839496223215 78.0673940245068 H 0.0 **** 0.06
30080 H 69.28464703619898 1.4883541777636253 76.50720661854402 H 0.0 **** 0.06
30081 C 17.885678593144974 62.296141604516095 111.36486428996722 C 0.0 **** -0.24
30082 H 17.000722058249508 62.81014229984078 110.9929080159635 H 0.0 **** 0.06
30083 H 18.01103989495938 62.50998286991853 112.42667919466568 H 0.0 **** 0.06
30084 H 18.763344008582436 62.64113374476568 110.81787502615954 H 0.0 **** 0.06
30085 H 17.76886053734421 61.221202694246756 111.22194699321459 H 0.0 **** 0.06
30086 C 3.752935562442474 58.25283428282983 67.84512781402134 C 0.0 **** -0.24
30087 H 2.8662280994050775 58.35551702697996 68.46991134823878 H 0.0 **** 0.06
30088 H 4.278095668123342 57.334667793479404 68.10883326663134 H 0.0 **** 0.06
30089 H 4.410912143571977 59.10704186113973 68.00548564448695 H 0.0 **** 0.06
30090 H 3.4557246149359457 58.21372387104885 66.79739436027285 H 0.0 **** 0.06
30091 C 103.80482301990602 13.006022126900817 70.81053269185873 C 0.0 **** -0.24
30092 H 103.47118642607035 13.133432577920644 69.78020378908388 H 0.0 **** 0.06
30093 H 103.4214267704426 13.825633615342014 71.41984445292917 H 0.0 **** 0.06
30094 H 104.89434568397095 13.00853722444738 70.84208306657388 H 0.0 **** 0.06
30095 H 103.4309969175782 12.059255599733206 71.1987587933919 H 0.0 **** 0.06
30096 C 21.65946304795753 66.44499408908786 3.851908139259237 C 0.0 **** -0.24
30097 H 21.23989061250967 67.39132287558581 4.193043274427211 H 0.0 **** 0.06
30098 H 21.40840307725466 65.65870969462236 4.563890679065878 H 0.0 **** 0.06
30099 H 22.74244930272539 66.53389555510782 3.774515539849162 H 0.0 **** 0.06
30100 H 21.24414116662922 66.19619638854363 2.8747101566582955 H 0.0 **** 0.06
30101 C 61.101652551029396 75.68415920635181 34.01579800377206 C 0.0 **** -0.24
30102 H 60.57563848028544 75.72280717566122 34.96911949171596 H 0.0 **** 0.06
30103 H 61.958836035939065 75.01539791821716 34.10043406497053 H 0.0 **** 0.06
30104 H 61.44579780936581 76.68376880939701 33.7498015944426 H 0.0 **** 0.06
30105 H 60.4271174988427 75.31515926145147 33.24345490039045 H 0.0 **** 0.06
30106 C 46.53742158437561 52.23090541821202 106.00477759865242 C 0.0 **** -0.24
30107 H 46.85041913807996 51.20747696661061 105.80203630204846 H 0.0 **** 0.06
30108 H 46.28323914485851 52.72624525579786 105.06710538264952 H 0.0 **** 0.06
30109 H 47.35081507385061 52.76994635772917 106.49139175336508 H 0.0 **** 0.06
30110 H 45.66542314157846 52.22111487278465 106.65935555330803 H 0.0 **** 0.06
30111 C 40.50833914361693 74.16309705336931 90.17444617948965 C 0.0 **** -0.24
30112 H 40.06064190582168 75.15414261770545 90.24873792579254 H 0.0 **** 0.06
30113 H 39.89417608573768 73.53390479249344 89.53091049540745 H 0.0 **** 0.06
30114 H 40.56937971848857 73.71688093107826 91.16768919196087 H 0.0 **** 0.06
30115 H 41.50993081173372 74.24753836321054 89.75254429818992 H 0.0 **** 0.06
30116 C 49.95684069882265 33.42832394296954 67.18149492126264 C 0.0 **** -0.24
30117 H 48.91267724662944 33.49040130286727 66.8731663006293 H 0.0 **** 0.06
30118 H 50.0484478394944 32.730015104195786 68.0135371675388 H 0.0 **** 0.06
30119 H 50.30272351624404 34.41395960621594 67.49423898931695 H 0.0 **** 0.06
30120 H 50.56218707263407 33.07848106300821 66.3452526605376 H 0.0 **** 0.06
30121 C 110.364677198407 82.50834907545621 35.30027551169289 C 0.0 **** -0.24
30122 H 110.93915784847705 81.6099838962885 35.524751215945344 H 0.0 **** 0.06
30123 H 110.02327413948227 82.9626111563561 36.231143589326294 H 0.0 **** 0.06
30124 H 109.50268322185927 82.24487753554828 34.687914111839504 H 0.0 **** 0.06
30125 H 110.99185403540154 83.21569485077893 34.75900249605618 H 0.0 **** 0.06
30126 C 112.6570818371199 23.839664153583556 76.635029163708 C 0.0 **** -0.24
30127 H 112.08806921251029 23.968794920935437 75.71415496605391 H 0.0 **** 0.06
30128 H 112.34586818541177 22.919271182467515 77.12874690749811 H 0.0 **** 0.06
30129 H 112.47353517483774 24.68682884555098 77.29612901679448 H 0.0 **** 0.06
30130 H 113.7199384261724 23.785627099474187 76.4002606931148 H 0.0 **** 0.06
30131 C 110.43338103395537 42.63388356511406 6.737003046649354 C 0.0 **** -0.24
30132 H 111.42879949732217 43.047444650134736 6.576237127747776 H 0.0 **** 0.06
30133 H 110.4530049757374 41.55889124810071 6.554361649876029 H 0.0 **** 0.06
30134 H 109.72840618510713 43.1069350017209 6.05337654695885 H 0.0 **** 0.06
30135 H 110.12458254666647 42.82258308516603 7.76517150299428 H 0.0 **** 0.06
30136 C 33.261882140374155 59.970613692489025 69.97054849642257 C 0.0 **** -0.24
30137 H 34.32876235912116 60.03775503005522 69.75608389492425 H 0.0 **** 0.06
30138 H 32.774371713882346 59.37133538638719 69.20197810179172 H 0.0 **** 0.06
30139 H 32.830888120773125 60.971594455890255 69.97938244844192 H 0.0 **** 0.06
30140 H 33.115296563974255 59.50297056319047 70.94415465971474 H 0.0 **** 0.06
30141 C 107.50825729455181 92.05236104379517 102.75574156362475 C 0.0 **** -0.24
30142 H 107.37702229304084 90.98121087297926 102.9068542267286 H 0.0 **** 0.06
30143 H 108.52634656920543 92.33495723526923 103.02479555113183 H 0.0 **** 0.06
30144 H 106.8016204270879 92.59628033002474 103.38291822279601 H 0.0 **** 0.06
30145 H 107.32782713508095 92.29602004878046 101.70845140670284 H 0.0 **** 0.06
30146 C 39.52139355946241 69.99415712223924 111.84595287008985 C 0.0 **** -0.24
30147 H 40.58761769448111 70.16991108875004 111.705030915236 H 0.0 **** 0.06
30148 H 38.95694691092814 70.82012720670969 111.41184244989441 H 0.0 **** 0.06
30149 H 39.30268811291921 69.92387846885163 112.91157580563646 H 0.0 **** 0.06
30150 H 39.239150717915265 69.0629510544843 111.35424192363254 H 0.0 **** 0.06
30151 C 64.76758994565887 71.68033565295897 24.593814955516052 C 0.0 **** -0.24
30152 H 65.69888404261837 71.94764978462874 25.093793841162096 H 0.0 **** 0.06
30153 H 64.48229229184957 70.66667344914424 24.874618366034895 H 0.0 **** 0.06
30154 H 64.90822763759982 71.73220966064349 23.51409113604666 H 0.0 **** 0.06
30155 H 63.98347667564161 72.37602996837623 24.891680961551288 H 0.0 **** 0.06
30156 C 63.0026551294153 73.42531764435313 56.56998820939674 C 0.0 **** -0.24
30157 H 63.45959330707399 74.28781112948712 56.084283661735384 H 0.0 **** 0.06
30158 H 62.94304984556527 73.60221914414353 57.64383431241495 H 0.0 **** 0.06
30159 H 63.60916128966801 72.53967465855266 56.38043037807739 H 0.0 **** 0.06
30160 H 62.00052275781479 73.2715088531885 56.169960777196195 H 0.0 **** 0.06
30161 C 33.14711849982652 6.0455595932831905 105.11134208636628 C 0.0 **** -0.24
30162 H 32.646756014282374 6.765520189911442 105.75855339877026 H 0.0 **** 0.06
30163 H 34.21712848005608 6.05311526310498 105.31946213474447 H 0.0 **** 0.06
30164 H 32.97770790999849 6.314808461904915 104.06893023285991 H 0.0 **** 0.06
30165 H 32.747771897900584 5.049244131222357 105.29849477048066 H 0.0 **** 0.06
30166 C 64.1538543525815 70.95513672669489 32.590972475071084 C 0.0 **** -0.24
30167 H 64.52983897149446 70.25549859076904 31.84494942219061 H 0.0 **** 0.06
30168 H 63.98635341854492 71.92676603331887 32.12572378438043 H 0.0 **** 0.06
30169 H 64.88359115931272 71.05696284666845 33.39408953462926 H 0.0 **** 0.06
30170 H 63.21443920472629 70.58070083925656 32.99869098487788 H 0.0 **** 0.06
30171 C 38.49605202098127 0.9764057341176056 74.64660188502165 C 0.0 **** -0.24
30172 H 38.707603398646555 -0.08442732274974674 74.51297695241016 H 0.0 **** 0.06
30173 H 37.87409393666361 1.1131322590284611 75.53176822076045 H 0.0 **** 0.06
30174 H 37.96897394039448 1.3539492559943938 73.77038560126454 H 0.0 **** 0.06
30175 H 39.43228904569844 1.5204509487191444 74.77095389042631 H 0.0 **** 0.06
30176 C 75.29975951676386 84.21846366917319 13.153305652394149 C 0.0 **** -0.24
30177 H 76.2362057395558 84.1446891291981 12.601131647598361 H 0.0 **** 0.06
30178 H 75.3357917593087 83.55805241078534 14.019270428546978 H 0.0 **** 0.06
30179 H 74.47286879771019 83.92618335387871 12.506012558620235 H 0.0 **** 0.06
30180 H 75.15459643903819 85.24704850454359 13.4862326848503 H 0.0 **** 0.06
30181 C 3.1857055582112537 62.169415049985126 72.3984336415518 C 0.0 **** -0.24
30182 H 3.4385814492385833 61.35677141870136 73.07968287708411 H 0.0 **** 0.06
30183 H 3.8243645689133956 62.11592659108951 71.51638938010345 H 0.0 **** 0.06
30184 H 3.3379086959386797 63.12532731634881 72.9010412574913 H 0.0 **** 0.06
30185 H 2.1413010215967887 62.079653557784916 72.09736636298757 H 0.0 **** 0.06
30186 C 38.230698908551716 42.172908772453525 51.95831772295118 C 0.0 **** -0.24
30187 H 39.286998640439265 42.02814728545741 51.73393563906618 H 0.0 **** 0.06
30188 H 38.04384380858809 41.916944944969316 53.002207178672904 H 0.0 **** 0.06
30189 H 37.63130503403707 41.52967683618692 51.314037465680514 H 0.0 **** 0.06
30190 H 37.96152340050355 43.21460192185367 51.785756789372364 H 0.0 **** 0.06
30191 C 17.286795032835116 7.8267193870093905 91.22089199704234 C 0.0 **** -0.24
30192 H 16.876296592923822 7.285723724970097 90.36791183812508 H 0.0 **** 0.06
30193 H 17.906441365951054 8.649309406255554 90.86431738711195 H 0.0 **** 0.06
30194 H 17.893452770508873 7.148740480609561 91.82265397503016 H 0.0 **** 0.06
30195 H 16.471401983704453 8.221058607911687 91.82788061621491 H 0.0 **** 0.06
30196 C 112.61702527389662 77.04170791592895 10.525662255962544 C 0.0 **** -0.24
30197 H 113.59423330817403 77.39637396832723 10.198832320222323 H 0.0 **** 0.06
30198 H 111.84871406659873 77.41873027087559 9.850043674195973 H 0.0 **** 0.06
30199 H 112.41997770141022 77.40002103598903 11.536397330805528 H 0.0 **** 0.06
30200 H 112.60517601940353 75.95170638852392 10.517375698626338 H 0.0 **** 0.06
30201 C 21.34828648952748 54.417275848473366 91.91323552907167 C 0.0 **** -0.24
30202 H 21.60418047791265 55.4713579211365 91.80579884484257 H 0.0 **** 0.06
30203 H 20.327789769997878 54.25554075107746 91.56542434686611 H 0.0 **** 0.06
30204 H 21.425040193033965 54.13012598652139 92.96223231251022 H 0.0 **** 0.06
30205 H 22.03542007846977 53.814109816433444 91.32008922300707 H 0.0 **** 0.06
30206 C 64.01660626477457 95.08328973512548 42.17510582804334 C 0.0 **** -0.24
30207 H 65.07172016208614 95.01015572116904 42.43769188810387 H 0.0 **** 0.06
30208 H 63.872580243603636 94.74127161179811 41.14920299784117 H 0.0 **** 0.06
30209 H 63.69125355209499 96.12010085608543 42.26159116412586 H 0.0 **** 0.06
30210 H 63.43032739376687 94.46060328535802 42.851131775304054 H 0.0 **** 0.06
30211 C 27.473465799652217 40.90601681992274 78.47819815040188 C 0.0 **** -0.24
30212 H 27.61734938165904 39.94272654499173 77.99066286990973 H 0.0 **** 0.06
30213 H 26.665458028648814 40.82704270268505 79.20753489528681 H 0.0 **** 0.06
30214 H 27.216169697122282 41.65680694891425 77.73114441713915 H 0.0 **** 0.06
30215 H 28.39320920922613 41.197992843758044 78.98516408303703 H 0.0 **** 0.06
30216 C 105.96856028712196 109.45538718104234 19.287799994189925 C 0.0 **** -0.24
30217 H 106.96088313965993 109.86874430830746 19.464298019602836 H 0.0 **** 0.06
30218 H 105.21366909603543 110.18168059354609 19.5901931126472 H 0.0 **** 0.06
30219 H 105.84724421589976 108.54168617577214 19.869625803804837 H 0.0 **** 0.06
30220 H 105.85303294423045 109.22982154946438 18.227794827428795 H 0.0 **** 0.06
30221 C 5.213378950615635 35.815088367350086 107.70500141221142 C 0.0 **** -0.24
30222 H 6.180435289070644 35.93030548681014 107.21462962397457 H 0.0 **** 0.06
30223 H 5.281613025171097 36.17830370725892 108.73061349189148 H 0.0 **** 0.06
30224 H 4.932160999405596 34.76189856096585 107.70948440838306 H 0.0 **** 0.06
30225 H 4.461999082789873 36.38961022685311 107.16397620530897 H 0.0 **** 0.06
30226 C 41.99406365648133 33.14372427973666 40.19368147341396 C 0.0 **** -0.24
30227 H 42.02611621141256 33.28165798802996 41.27474037642625 H 0.0 **** 0.06
30228 H 41.71272341815836 32.11611561773981 39.96726283223694 H 0.0 **** 0.06
30229 H 42.976650051270155 33.35380431978456 39.771920037712704 H 0.0 **** 0.06
30230 H 41.26103235492087 33.82551372017173 39.763275129464546 H 0.0 **** 0.06
30231 C 22.93843585000782 2.9739007920158738 38.97265956990188 C 0.0 **** -0.24
30232 H 23.280657426834576 3.767255429634268 38.30851035945611 H 0.0 **** 0.06
30233 H 23.496467799925483 3.0169092804940014 39.908205413128385 H 0.0 **** 0.06
30234 H 23.10006439655323 2.006031699829993 38.49683702835878 H 0.0 **** 0.06
30235 H 21.87515428141419 3.1052032773878846 39.17707443603314 H 0.0 **** 0.06
30236 C 105.41929123888099 99.50546692604362 31.83534390022774 C 0.0 **** -0.24
30237 H 105.47860045315747 98.75236208856862 32.62091368940381 H 0.0 **** 0.06
30238 H 104.79038085732088 99.1351942885918 31.02438556632211 H 0.0 **** 0.06
30239 H 106.41895145405783 99.71246750945494 31.45401127249525 H 0.0 **** 0.06
30240 H 104.98829955290591 100.42124259856374 32.23988125441201 H 0.0 **** 0.06
30241 C 28.10433039195118 55.54697358791853 4.839474327835717 C 0.0 **** -0.24
30242 H 28.478722882414843 56.56617906160858 4.942367167834533 H 0.0 **** 0.06
30243 H 27.01530107285174 55.5538994372927 4.889430194488909 H 0.0 **** 0.06
30244 H 28.50161416849258 54.931690535399554 5.647658613187886 H 0.0 **** 0.06
30245 H 28.42288621054675 55.13833153835125 3.88121383215649 H 0.0 **** 0.06
30246 C 69.26205183591122 61.57475388549528 109.2119166931194 C 0.0 **** -0.24
30247 H 69.91032814948576 60.70693280616083 109.08922682511871 H 0.0 **** 0.06
30248 H 68.3306582201057 61.267543991304684 109.68824162444173 H 0.0 **** 0.06
30249 H 69.0467426767465 62.00776456973296 108.23573022070156 H 0.0 **** 0.06
30250 H 69.7621746772329 62.315764403905895 109.83591827402142 H 0.0 **** 0.06
30251 C 76.72250217213593 2.2776179237944802 10.61182640235495 C 0.0 **** -0.24
30252 H 76.23403830981891 1.7867046707135472 11.4537887798013 H 0.0 **** 0.06
30253 H 76.07271338921666 3.059745330785148 10.22117110793954 H 0.0 **** 0.06
30254 H 76.92204166020719 1.5455142464779925 9.82937091872742 H 0.0 **** 0.06
30255 H 77.66271720640688 2.7185594743352794 10.944630683972264 H 0.0 **** 0.06
30256 C 88.8699603867287 16.20725828305072 60.10694536379657 C 0.0 **** -0.24
30257 H 88.0645059781173 16.881928060091354 60.39375918719426 H 0.0 **** 0.06
30258 H 88.45195436957187 15.241942382528805 59.81979797408215 H 0.0 **** 0.06
30259 H 89.5487712520048 16.072866045347922 60.95013396803813 H 0.0 **** 0.06
30260 H 89.4174561767993 16.63188259032242 59.264943582607344 H 0.0 **** 0.06
30261 C 21.611615562891558 59.86399210077121 46.7588939597163 C 0.0 **** -0.24
30262 H 21.49729722710279 59.30547357558018 45.828946723647576 H 0.0 **** 0.06
30263 H 22.548864026467612 60.421136492982754 46.734136934269976 H 0.0 **** 0.06
30264 H 21.623648571868813 59.169037310742254 47.59947383443034 H 0.0 **** 0.06
30265 H 20.77847595592374 60.556204187205765 46.87170394793872 H 0.0 **** 0.06
30266 C 110.67915293877067 60.42761689468463 93.45844649142822 C 0.0 **** -0.24
30267 H 110.82078063189313 60.08956209472731 94.48435334196105 H 0.0 **** 0.06
30268 H 109.70783826845467 60.914900689792404 93.36718988809716 H 0.0 **** 0.06
30269 H 110.72056192364118 59.57109854900429 92.78479445339667 H 0.0 **** 0.06
30270 H 111.46681056588125 61.13369838560109 93.19597979696681 H 0.0 **** 0.06
30271 C 36.455978259105734 24.92996080365461 88.0494626028887 C 0.0 **** -0.24
30272 H 37.030925626596854 24.357102554472817 88.77734265172973 H 0.0 **** 0.06
30273 H 35.394951394477744 24.85767990429386 88.28582627170971 H 0.0 **** 0.06
30274 H 36.6344080339926 24.531635966646775 87.05111973718175 H 0.0 **** 0.06
30275 H 36.76617536091737 25.97498144024908 88.08385874488692 H 0.0 **** 0.06
30276 C 88.17291867879041 39.83407393517223 79.43637537794967 C 0.0 **** -0.24
30277 H 87.47196467245598 39.04900683201484 79.15229523198829 H 0.0 **** 0.06
30278 H 88.34418853236974 40.49331224069928 78.58502003537694 H 0.0 **** 0.06
30279 H 89.11723607405472 39.383856329551776 79.74407525033365 H 0.0 **** 0.06
30280 H 87.75838741761422 40.40934686404985 80.2647366089378 H 0.0 **** 0.06
30281 C 28.162517428007106 6.383203144894878 62.55353371187368 C 0.0 **** -0.24
30282 H 28.226350251095226 5.298283213602161 62.63745335690038 H 0.0 **** 0.06
30283 H 27.7144769715336 6.792472294867935 63.46002530465694 H 0.0 **** 0.06
30284 H 27.5459880219816 6.64593636690185 61.69349465748331 H 0.0 **** 0.06
30285 H 29.16285732170647 6.796888412899847 62.42366447514189 H 0.0 **** 0.06
30286 C 90.76848564096457 90.59450299762062 9.52004130195921 C 0.0 **** -0.24
30287 H 91.35255267846247 90.2366306893586 10.368059291120886 H 0.0 **** 0.06
30288 H 90.01427635395461 91.29974387789645 9.870157111601742 H 0.0 **** 0.06
30289 H 90.2797290456609 89.75072014775216 9.033493408160993 H 0.0 **** 0.06
30290 H 91.42857167231838 91.09162210510846 8.808761855365333 H 0.0 **** 0.06
30291 C 6.732945388291185 104.65344581350104 101.96507957930615 C 0.0 **** -0.24
30292 H 5.764421522711942 104.69578102585245 101.46569325135755 H 0.0 **** 0.06
30293 H 7.332675784401459 103.85504422518528 101.52787052730397 H 0.0 **** 0.06
30294 H 6.584847436370424 104.45728392112488 103.0275521502455 H 0.0 **** 0.06
30295 H 7.24673847111454 105.60581722865464 101.8403773057947 H 0.0 **** 0.06
30296 C 73.0385347472095 100.75571315839935 95.61496130458352 C 0.0 **** -0.24
30297 H 73.90456918963042 100.09711416179985 95.54368621614543 H 0.0 **** 0.06
30298 H 72.22348998261936 100.3499737250535 95.01555414761754 H 0.0 **** 0.06
30299 H 73.30483760519141 101.7460448815167 95.24607211265933 H 0.0 **** 0.06
30300 H 72.72266453605988 100.82797624464251 96.65550079157546 H 0.0 **** 0.06
30301 C 81.7835368987383 13.290434308165928 63.8544452866538 C 0.0 **** -0.24
30302 H 82.25739812968234 13.35504971917328 62.87448006992665 H 0.0 **** 0.06
30303 H 80.7707538434303 12.902789751190141 63.742331075242504 H 0.0 **** 0.06
30304 H 81.74592652758164 14.281541574164208 64.30559513791576 H 0.0 **** 0.06
30305 H 82.36050011357744 12.62112997746624 64.49249194886315 H 0.0 **** 0.06
30306 C 50.10975027570348 7.957636835100885 92.08694529439933 C 0.0 **** -0.24
30307 H 49.31474058525031 7.217902414267272 92.18110456925143 H 0.0 **** 0.06
30308 H 50.590328716323974 7.851082815255708 91.11416216228886 H 0.0 **** 0.06
30309 H 50.845601378644766 7.8015741851475155 92.87537979194934 H 0.0 **** 0.06
30310 H 49.687803053405176 8.958004263289283 92.17624738376227 H 0.0 **** 0.06
30311 C 98.64145936670596 75.96596668243444 43.08385482306318 C 0.0 **** -0.24
30312 H 98.7947680809518 75.62373081617113 44.10709497766044 H 0.0 **** 0.06
30313 H 97.86775223242401 76.73344934783483 43.06936328228454 H 0.0 **** 0.06
30314 H 98.33311202796975 75.1259566960955 42.46197180086892 H 0.0 **** 0.06
30315 H 99.57235300668555 76.3808907207715 42.69759007821568 H 0.0 **** 0.06
30316 C 35.39841523949997 60.246646087269966 46.39497015262717 C 0.0 **** -0.24
30317 H 34.88432538568195 59.71692447192308 47.197271249003734 H 0.0 **** 0.06
30318 H 36.45600042862786 59.98039404300329 46.40368123380597 H 0.0 **** 0.06
30319 H 35.293571300632635 61.321732413467885 46.544765326149474 H 0.0 **** 0.06
30320 H 34.961365194661354 59.96762189330033 45.43669822186024 H 0.0 **** 0.06
30321 C 13.685179349737641 14.05443714126973 109.39061816517741 C 0.0 **** -0.24
30322 H 13.91415250520889 13.425172530125224 110.25043134782233 H 0.0 **** 0.06
30323 H 14.086232960786326 15.054501491365265 109.55619504354995 H 0.0 **** 0.06
30324 H 12.604872142066927 14.112645318175222 109.26044714365202 H 0.0 **** 0.06
30325 H 14.13754187323589 13.625217824448839 108.49618686063351 H 0.0 **** 0.06
30326 C 72.41165156879907 9.29450713342664 86.72288139651582 C 0.0 **** -0.24
30327 H 73.18673491892886 8.855642538047773 87.3516676022175 H 0.0 **** 0.06
30328 H 71.59137529925732 8.58491496076006 86.61026153154938 H 0.0 **** 0.06
30329 H 72.82872969045977 9.52807249065849 85.74316180985079 H 0.0 **** 0.06
30330 H 72.04098950332096 10.207892688172723 87.18754667552184 H 0.0 **** 0.06
30331 C 87.87098822949281 54.29015799093256 67.79125899564886 C 0.0 **** -0.24
30332 H 88.61372700386309 54.78057752479349 68.42131632848302 H 0.0 **** 0.06
30333 H 86.95953725618966 54.12501572876719 68.3658567249027 H 0.0 **** 0.06
30334 H 88.26306236000121 53.33305821818328 67.44582108968976 H 0.0 **** 0.06
30335 H 87.6500206572506 54.92351443154979 66.93108550102832 H 0.0 **** 0.06
30336 C 55.26400273964077 56.76466619163605 108.9504073835219 C 0.0 **** -0.24
30337 H 55.4598261511951 55.83348808417941 108.41884468027908 H 0.0 **** 0.06
30338 H 55.37553637102059 57.604943906400536 108.26535776221587 H 0.0 **** 0.06
30339 H 55.972463753057866 56.86899599415514 109.7722277285263 H 0.0 **** 0.06
30340 H 54.24835844373149 56.750269581436356 109.34621643936364 H 0.0 **** 0.06
30341 C 17.44934327220173 2.910876144834411 34.526698206199825 C 0.0 **** -0.24
30342 H 16.44767972040894 2.8292714630983635 34.10484137489742 H 0.0 **** 0.06
30343 H 18.12648407586325 2.2479904390568812 33.98740579864104 H 0.0 **** 0.06
30344 H 17.42527363892144 2.628208465170383 35.578339747068874 H 0.0 **** 0.06
30345 H 17.79914784682877 3.93970332902064 34.43427068073952 H 0.0 **** 0.06
30346 C 0.22640143931849988 61.422429496066236 88.17666076149837 C 0.0 **** -0.24
30347 H -0.6916480369941977 62.00739856673288 88.23449456698614 H 0.0 **** 0.06
30348 H 0.7400689478525111 61.64412775656957 87.2409295021391 H 0.0 **** 0.06
30349 H -0.017578563413964687 60.36030096949762 88.21558634323404 H 0.0 **** 0.06
30350 H 0.8739205862116064 61.67738203337111 89.0154566449522 H 0.0 **** 0.06
30351 C 91.89867950655548 32.868444072002134 2.091463549118501 C 0.0 **** -0.24
30352 H 92.25098175262136 32.72511501332404 1.0696331632546787 H 0.0 **** 0.06
30353 H 91.19192868903662 32.07901875938073 2.3463523919176623 H 0.0 **** 0.06
30354 H 91.40874409730299 33.83788846798408 2.173695924423427 H 0.0 **** 0.06
30355 H 92.74727001334838 32.83075368270353 2.7756200084004092 H 0.0 **** 0.06
30356 C 29.50233474880332 55.96906137477026 100.50183541794061 C 0.0 **** -0.24
30357 H 30.151954325051207 55.432539843867346 99.80926663239677 H 0.0 **** 0.06
30358 H 29.015233744050335 56.79243821438976 99.97820610755258 H 0.0 **** 0.06
30359 H 30.097707285667795 56.363401021756715 101.32589562718647 H 0.0 **** 0.06
30360 H 28.746153771868507 55.28769409181001 100.89222799830137 H 0.0 **** 0.06
30361 C 70.71516124270016 33.263133403885966 53.66131301049645 C 0.0 **** -0.24
30362 H 69.79195772031022 33.67865835119295 54.06585063948169 H 0.0 **** 0.06
30363 H 70.83224493563586 32.23584432194191 54.00555261938979 H 0.0 **** 0.06
30364 H 71.56061072411848 33.86046791507016 54.00234971570511 H 0.0 **** 0.06
30365 H 70.6742037159143 33.28005730002173 52.572561703088674 H 0.0 **** 0.06
30366 C 52.736854481492514 95.54797102680939 75.58538355397019 C 0.0 **** -0.24
30367 H 52.53523225056665 95.7437265058563 76.63913624308432 H 0.0 **** 0.06
30368 H 53.22701700173053 94.57966984804085 75.48245182411907 H 0.0 **** 0.06
30369 H 53.3862847340842 96.3280991628508 75.18961497877899 H 0.0 **** 0.06
30370 H 51.79740859789524 95.5410483596419 75.03187660031492 H 0.0 **** 0.06
30371 C 19.908454263375205 62.60157548246918 44.20064479310412 C 0.0 **** -0.24
30372 H 20.494451431912495 62.5506384815186 45.118687367861156 H 0.0 **** 0.06
30373 H 19.515492993693016 61.61286766896841 43.96596281821411 H 0.0 **** 0.06
30374 H 20.543947960263466 62.9436294306385 43.3834139307082 H 0.0 **** 0.06
30375 H 19.082328044251312 63.29939260521764 44.33598917999214 H 0.0 **** 0.06
30376 C 43.099090927509145 46.74706170769872 61.593057395216505 C 0.0 **** -0.24
30377 H 44.09381016619807 46.75892474938365 62.038924316228076 H 0.0 **** 0.06
30378 H 42.82481865121452 47.75851128526216 61.29136562100982 H 0.0 **** 0.06
30379 H 42.37869858261983 46.37704334547436 62.32215658911909 H 0.0 **** 0.06
30380 H 43.100820418767164 46.09509503312563 60.719549036609806 H 0.0 **** 0.06
30381 C 92.63351591415412 105.8896451435773 106.10251724159963 C 0.0 **** -0.24
30382 H 91.94416889707992 106.72462966581443 106.23016895877132 H 0.0 **** 0.06
30383 H 92.59155763916118 105.53793316966988 105.07075482338234 H 0.0 **** 0.06
30384 H 92.35052112843292 105.07901315559957 106.77470633306162 H 0.0 **** 0.06
30385 H 93.64641770712421 106.21685383816043 106.33458781071377 H 0.0 **** 0.06
30386 C 84.99435715636747 68.46978263288267 62.27895996149207 C 0.0 **** -0.24
30387 H 84.89130418874899 68.6761385350319 61.213351331416526 H 0.0 **** 0.06
30388 H 84.36507488040871 67.6204478189753 62.5460285185246 H 0.0 **** 0.06
30389 H 84.68476805836502 69.34468724419298 62.84993531701729 H 0.0 **** 0.06
30390 H 86.03486971925821 68.23713131938001 62.504949671407736 H 0.0 **** 0.06
30391 C 111.04285267414701 78.71016048193292 68.77432980633324 C 0.0 **** -0.24
30392 H 110.45680215898994 78.22563911398237 69.5559692937583 H 0.0 **** 0.06
30393 H 110.99221121076431 79.79136845470254 68.90015950130632 H 0.0 **** 0.06
30394 H 110.64045881122098 78.43781939692474 67.79786732092631 H 0.0 **** 0.06
30395 H 112.08085536186127 78.38307836289306 68.84274146243536 H 0.0 **** 0.06
30396 C 71.69945514539333 15.246746649952883 14.569131118514804 C 0.0 **** -0.24
30397 H 70.64839777114975 15.522395299319442 14.484434040141764 H 0.0 **** 0.06
30398 H 71.85274274383124 14.676299904628024 15.485426286764067 H 0.0 **** 0.06
30399 H 72.30960908293113 16.149562869023697 14.597121105942819 H 0.0 **** 0.06
30400 H 71.98667646748484 14.640331397839077 13.710067761821165 H 0.0 **** 0.06
30401 C 20.336055363446036 100.93793668126315 22.99215945578547 C 0.0 **** -0.24
30402 H 19.555946181808096 101.63744163755442 23.289621674881005 H 0.0 **** 0.06
30403 H 21.313828966000585 101.37988057867287 23.186781724658488 H 0.0 **** 0.06
30404 H 20.240985013713896 100.71899284800489 21.927757407853818 H 0.0 **** 0.06
30405 H 20.23316448794462 100.01527889760618 23.56226594039579 H 0.0 **** 0.06
30406 C 98.79112062860418 78.73575080862068 97.74708674437579 C 0.0 **** -0.24
30407 H 97.97378417526033 78.64982106977703 98.46318282604364 H 0.0 **** 0.06
30408 H 98.39143993059915 78.68971301280345 96.73368638282881 H 0.0 **** 0.06
30409 H 99.49438805914772 77.91733443037899 97.8991324906653 H 0.0 **** 0.06
30410 H 99.30337851043834 79.68778113054645 97.89259833414496 H 0.0 **** 0.06
30411 C 58.739534906132235 108.9819493832812 100.0575148676707 C 0.0 **** -0.24
30412 H 58.42142166265904 109.89552726434434 100.55844573383868 H 0.0 **** 0.06
30413 H 59.47245807739506 108.46467447800737 100.67781218945944 H 0.0 **** 0.06
30414 H 59.18867095848299 109.23296018546226 99.09640780108285 H 0.0 **** 0.06
30415 H 57.876701063714336 108.33549008012328 99.89757577907056 H 0.0 **** 0.06
30416 C 66.32671169208643 47.95558311640147 29.015546099705773 C 0.0 **** -0.24
30417 H 67.16731510928739 47.553449878511245 28.451283691681624 H 0.0 **** 0.06
30418 H 65.95495158600582 47.195893756427864 29.70353441448708 H 0.0 **** 0.06
30419 H 65.53129500457118 48.24252686879896 28.32662516600334 H 0.0 **** 0.06
30420 H 66.65184709661335 48.82919131810836 29.579593091389768 H 0.0 **** 0.06
30421 C 110.95794688263013 2.1942312139402134 25.616711852241792 C 0.0 **** -0.24
30422 H 111.91773431243007 1.685726128470833 25.5183801018797 H 0.0 **** 0.06
30423 H 111.07251251547981 3.242978004896969 25.34366745566996 H 0.0 **** 0.06
30424 H 110.61271314681989 2.12147761836259 26.647630338158706 H 0.0 **** 0.06
30425 H 110.2291074532911 1.7240917655412176 24.95546874024592 H 0.0 **** 0.06
30426 C 10.292557125566919 89.72228411754162 64.03203128469679 C 0.0 **** -0.24
30427 H 10.632080435506605 88.93804035348953 63.355467150654874 H 0.0 **** 0.06
30428 H 9.259342779527989 89.52888465902572 64.3208706329302 H 0.0 **** 0.06
30429 H 10.355252718571279 90.68755220214643 63.52992456384831 H 0.0 **** 0.06
30430 H 10.923273819928003 89.73386842437338 64.92072393284093 H 0.0 **** 0.06
30431 C 100.55725438149506 56.343256753010735 61.236514349423146 C 0.0 **** -0.24
30432 H 99.61423383320923 55.797507726756095 61.27401981793116 H 0.0 **** 0.06
30433 H 100.72675817854739 56.7066583934722 60.2233603368623 H 0.0 **** 0.06
30434 H 101.37205686600834 55.67968384973765 61.52617329505597 H 0.0 **** 0.06
30435 H 100.51556599151618 57.18805550288144 61.92464412488209 H 0.0 **** 0.06
30436 C 19.651353509490065 81.42853742207538 59.82649415001267 C 0.0 **** -0.24
30437 H 19.84562519142256 82.49727079276622 59.91967094277938 H 0.0 **** 0.06
30438 H 19.68916063322459 81.14390703738042 58.774501938269346 H 0.0 **** 0.06
30439 H 18.6652110549024 81.20171486420537 60.22993050915405 H 0.0 **** 0.06
30440 H 20.40813555249253 80.87210780128049 60.38017406757589 H 0.0 **** 0.06
30441 C 85.33668583248061 100.96398360112579 82.96051610040686 C 0.0 **** -0.24
30442 H 86.40750484652733 100.98269979906718 82.75921359144229 H 0.0 **** 0.06
30443 H 84.82796725208368 100.41706166807819 82.16640073128079 H 0.0 **** 0.06
30444 H 84.95646276007335 101.98545397940268 82.99919618103343 H 0.0 **** 0.06
30445 H 85.15520656576416 100.47256886787966 83.91569836119118 H 0.0 **** 0.06
30446 C 0.08863055505864281 102.54230189486864 88.78773923680532 C 0.0 **** -0.24
30447 H 0.855578963815816 102.8276107394224 88.06729949472779 H 0.0 **** 0.06
30448 H 0.4881877745815473 102.63233609661489 89.79803438188219 H 0.0 **** 0.06
30449 H -0.21213548520526615 101.5097612536849 88.60626724409238 H 0.0 **** 0.06
30450 H -0.7747216799461967 103.19699404370328 88.67793312492503 H 0.0 **** 0.06
30451 C 77.73300535786856 7.467345305945997 27.511649109502493 C 0.0 **** -0.24
30452 H 78.37320614735395 7.2556608704222505 28.36809586344637 H 0.0 **** 0.06
30453 H 76.96161284694247 8.18123006612353 27.802912929693065 H 0.0 **** 0.06
30454 H 77.26569806014678 6.544029907492069 27.170452818794843 H 0.0 **** 0.06
30455 H 78.33377748199467 7.890357290035105 26.705619837101487 H 0.0 **** 0.06
30456 C 41.85498850539281 67.18688682256163 35.44853706092198 C 0.0 **** -0.24
30457 H 40.94775346699669 67.21932231301241 34.84568891866627 H 0.0 **** 0.06
30458 H 41.77128957968799 67.90062311267019 36.26834948535523 H 0.0 **** 0.06
30459 H 42.71342717710198 67.44468966278444 34.827922722475336 H 0.0 **** 0.06
30460 H 41.98666870455622 66.18391628396978 35.852759441777366 H 0.0 **** 0.06
30461 C 63.273828405048555 91.13844559644699 54.451013795416884 C 0.0 **** -0.24
30462 H 63.67142538420645 90.36964973871451 53.78878050025014 H 0.0 **** 0.06
30463 H 64.06725592990341 91.49990613092382 55.10427818930236 H 0.0 **** 0.06
30464 H 62.469032212600546 90.71705717310377 55.05413594483548 H 0.0 **** 0.06
30465 H 62.886941822563905 91.96603049692135 53.85573365816691 H 0.0 **** 0.06
30466 C 12.786515918568796 0.9428444618473009 85.28210834588324 C 0.0 **** -0.24
30467 H 12.069375681656169 0.14269393733530933 85.10036573191059 H 0.0 **** 0.06
30468 H 12.645119621028982 1.7319761909756153 84.54302605025023 H 0.0 **** 0.06
30469 H 13.7989707370715 0.5480549599191704 85.20331225249453 H 0.0 **** 0.06
30470 H 12.631256780043088 1.349101409512798 86.28175993618103 H 0.0 **** 0.06
30471 C 83.63260049499726 109.98353634344915 18.368015296932157 C 0.0 **** -0.24
30472 H 82.67535402060253 109.5544435451057 18.06976369054948 H 0.0 **** 0.06
30473 H 83.67620751381477 111.02609681677589 18.05322256004942 H 0.0 **** 0.06
30474 H 84.44237606153953 109.42674405664135 17.89619617278396 H 0.0 **** 0.06
30475 H 83.73501984783869 109.92554417587377 19.451402367535877 H 0.0 **** 0.06
30476 C 108.48410488380192 65.21867431725269 39.532630254468415 C 0.0 **** -0.24
30477 H 108.90756187827489 64.30627260382838 39.95370594043254 H 0.0 **** 0.06
30478 H 109.26732621683726 65.9704693979865 39.43491181104554 H 0.0 **** 0.06
30479 H 107.70047672680298 65.59180121179878 40.19100366314001 H 0.0 **** 0.06
30480 H 108.06256182480325 65.00206414801855 38.55094808291568 H 0.0 **** 0.06
30481 C 101.31319477863266 57.951324843682194 38.06606309496587 C 0.0 **** -0.24
30482 H 100.67002711691856 58.7488798036208 37.69394235935155 H 0.0 **** 0.06
30483 H 102.2471219926559 58.37924076929715 38.430439698508906 H 0.0 **** 0.06
30484 H 101.52438926248362 57.24914849172196 37.259789177833156 H 0.0 **** 0.06
30485 H 100.80950936322861 57.42943840257674 38.880222158626125 H 0.0 **** 0.06
30486 C 106.47432701343615 78.51866278460318 32.502863022225284 C 0.0 **** -0.24
30487 H 105.95559521764858 78.34047040942949 31.561452307550496 H 0.0 **** 0.06
30488 H 107.12530615874897 79.38686178852504 32.40008154559936 H 0.0 **** 0.06
30489 H 107.0721655996648 77.64391074101962 32.75991420268494 H 0.0 **** 0.06
30490 H 105.74353023942268 78.70347122521497 33.290704599582824 H 0.0 **** 0.06
30491 C 28.552731979152867 40.09049401579591 74.21625958493533 C 0.0 **** -0.24
30492 H 28.262645565249187 40.32489949410102 73.19178246711704 H 0.0 **** 0.06
30493 H 29.22614517073663 40.86361646864819 74.58852807886433 H 0.0 **** 0.06
30494 H 29.059437676308903 39.12546952199726 74.2384513843603 H 0.0 **** 0.06
30495 H 27.66318723370381 40.0491732144923 74.84510864993135 H 0.0 **** 0.06
30496 C 79.63665883561254 34.126952962117116 93.80273359827535 C 0.0 **** -0.24
30497 H 80.4937863252045 34.68536482224903 93.42580777407082 H 0.0 **** 0.06
30498 H 78.80407821743177 34.81012251552761 93.96986902432528 H 0.0 **** 0.06
30499 H 79.90437659586175 33.64220083009508 94.74129575928146 H 0.0 **** 0.06
30500 H 79.34672154554133 33.37191166454056 93.07278405710008 H 0.0 **** 0.06
30501 C 16.072532846185823 22.193882595954307 83.19756239656957 C 0.0 **** -0.24
30502 H 16.258810531156826 21.870109874717258 82.17364383076338 H 0.0 **** 0.06
30503 H 15.126657012970213 21.7765798327233 83.54375704416674 H 0.0 **** 0.06
30504 H 16.024094985713134 23.282464632218307 83.2307939186123 H 0.0 **** 0.06
30505 H 16.880341244529177 21.845281683723996 83.84118837355089 H 0.0 **** 0.06
30506 C 65.31539005556937 17.470590601431525 86.88479515931081 C 0.0 **** -0.24
30507 H 65.34571422517314 18.55696346197584 86.97437697529006 H 0.0 **** 0.06
30508 H 64.83199657690867 17.04665329912666 87.76453844855862 H 0.0 **** 0.06
30509 H 66.33236416314452 17.085061737355716 86.80696460025223 H 0.0 **** 0.06
30510 H 64.75347125180323 17.19644989439709 85.99174950573897 H 0.0 **** 0.06
30511 C 39.018824266952294 6.6730106142032355 82.922386096201 C 0.0 **** -0.24
30512 H 38.7719475043323 6.751285830585317 81.86403067735512 H 0.0 **** 0.06
30513 H 39.83435546244627 5.962044016618677 83.0529109121317 H 0.0 **** 0.06
30514 H 38.14451842032187 6.329069710382555 83.47508342326913 H 0.0 **** 0.06
30515 H 39.324231492851055 7.649764281257916 83.29655724138314 H 0.0 **** 0.06
30516 C 106.96332986755418 13.863239956934876 80.77200596125584 C 0.0 **** -0.24
30517 H 106.81385365187073 13.473982541742743 79.76481981862352 H 0.0 **** 0.06
30518 H 107.08986146147775 13.033886365437766 81.46733230271158 H 0.0 **** 0.06
30519 H 106.09624244722325 14.455297841629843 81.06459483580147 H 0.0 **** 0.06
30520 H 107.8540692411343 14.491251737117551 80.78944049501058 H 0.0 **** 0.06
30521 C 92.31488840100315 33.79216789246171 46.91086047359329 C 0.0 **** -0.24
30522 H 91.3899205154953 33.233326891232174 47.051741678602895 H 0.0 **** 0.06
30523 H 93.07497519337645 33.41504895741962 47.59638061764241 H 0.0 **** 0.06
30524 H 92.13640043759241 34.84752731629716 47.111014881627824 H 0.0 **** 0.06
30525 H 92.6593219274657 33.66998384739441 45.883967590681635 H 0.0 **** 0.06
30526 C 70.22692827123538 72.07258085391376 92.76974176656279 C 0.0 **** -0.24
30527 H 70.2446283586778 71.8364162876293 93.83322347127677 H 0.0 **** 0.06
30528 H 70.96252193524037 72.8491521256482 92.55684862557052 H 0.0 **** 0.06
30529 H 69.23357949587395 72.42748386843806 92.49334439559175 H 0.0 **** 0.06
30530 H 70.46538082909896 71.17822524081029 92.19482807154068 H 0.0 **** 0.06
30531 C 98.8502449605721 8.662269339973662 28.718021220182884 C 0.0 **** -0.24
30532 H 98.77115191668304 9.479806658493615 29.43486809020117 H 0.0 **** 0.06
30533 H 98.66145495663619 7.715843506467181 29.224738959307935 H 0.0 **** 0.06
30534 H 99.85154993571618 8.651427405537177 28.28757007999957 H 0.0 **** 0.06
30535 H 98.11567831137245 8.80274731726206 27.925269590072773 H 0.0 **** 0.06
30536 C 29.633684232611188 106.59554795768864 88.50061177029909 C 0.0 **** -0.24
30537 H 29.502060449144523 107.03588849387593 87.5116831358556 H 0.0 **** 0.06
30538 H 30.067822631219457 107.33554157586421 89.17363683535467 H 0.0 **** 0.06
30539 H 30.298415507034065 105.7351741779139 88.4283785530576 H 0.0 **** 0.06
30540 H 28.666037389468784 106.27551703206663 88.88654979764269 H 0.0 **** 0.06
30541 C 99.01610046519946 26.738558940225943 4.955581795141086 C 0.0 **** -0.24
30542 H 98.34029407319753 25.88709109939373 5.030318537052533 H 0.0 **** 0.06
30543 H 98.83959285150706 27.416462292154847 5.790679691862236 H 0.0 **** 0.06
30544 H 98.83672719960532 27.263304154801347 4.016922053749633 H 0.0 **** 0.06
30545 H 100.046559858508 26.386940993783014 4.9838580198521 H 0.0 **** 0.06
30546 C 111.62007912178075 65.17085116672718 98.09222310076598 C 0.0 **** -0.24
30547 H 112.54181777584165 64.85386446313373 98.5815887675343 H 0.0 **** 0.06
30548 H 110.8398139399441 65.30432421351082 98.84116071458129 H 0.0 **** 0.06
30549 H 111.31050866078118 64.41219626816746 97.37409970818373 H 0.0 **** 0.06
30550 H 111.79148372382114 66.1143377604493 97.57261172555843 H 0.0 **** 0.06
30551 C 4.779949936144618 51.51951261287598 69.86350697450052 C 0.0 **** -0.24
30552 H 5.4855407274501005 52.31393307137504 70.10762413025981 H 0.0 **** 0.06
30553 H 4.963872191712397 50.66014833842249 70.50854267474062 H 0.0 **** 0.06
30554 H 4.9093843851563435 51.22686525552509 68.82190407816029 H 0.0 **** 0.06
30555 H 3.7621682767806846 51.877375180288524 70.01671019735079 H 0.0 **** 0.06
30556 C 20.41319740841113 19.61109190042447 100.49612568662991 C 0.0 **** -0.24
30557 H 19.59018019935129 20.3173373024909 100.60708746023533 H 0.0 **** 0.06
30558 H 20.458372030907967 19.265950969773172 99.46363727036558 H 0.0 **** 0.06
30559 H 20.2535355383835 18.760501949436744 101.15831159499442 H 0.0 **** 0.06
30560 H 21.35104077699101 20.10310987138591 100.75703872386646 H 0.0 **** 0.06
30561 C 89.496413923369 110.65159811451184 51.38288035329339 C 0.0 **** -0.24
30562 H 90.50861130966427 111.05431220795072 51.385900626725174 H 0.0 **** 0.06
30563 H 89.53565641947557 109.57209751097453 51.236047518908606 H 0.0 **** 0.06
30564 H 88.9261753210352 111.10753335682863 50.57302392954159 H 0.0 **** 0.06
30565 H 89.01505728403072 110.87233881996342 52.33514799831215 H 0.0 **** 0.06
30566 C 64.48361942592135 39.00393658628079 112.47044983252806 C 0.0 **** -0.24
30567 H 63.608728289923384 38.94998496899851 113.11750242048345 H 0.0 **** 0.06
30568 H 65.18568960853608 39.73673391693174 112.86887667772623 H 0.0 **** 0.06
30569 H 64.17676962696865 39.30182149016471 111.46817385377949 H 0.0 **** 0.06
30570 H 64.96428657448612 38.02620658253264 112.42733876120838 H 0.0 **** 0.06
30571 C 28.999101353791474 39.36421407901531 109.9905626557635 C 0.0 **** -0.24
30572 H 30.055476183682202 39.58838846278047 109.84501743142228 H 0.0 **** 0.06
30573 H 28.745920850770915 38.44496348014269 109.46202279891787 H 0.0 **** 0.06
30574 H 28.39702416629433 40.18477955653549 109.59999670477764 H 0.0 **** 0.06
30575 H 28.797761516605334 39.23990456638495 111.05446621915281 H 0.0 **** 0.06
30576 C 13.001177936935179 71.92161144185513 83.64870047908903 C 0.0 **** -0.24
30577 H 13.342368348146536 72.01820800184504 82.61742279382236 H 0.0 **** 0.06
30578 H 13.82542112563857 71.57644567305161 84.2732524583426 H 0.0 **** 0.06
30579 H 12.18316971386541 71.20264947623144 83.6950106675111 H 0.0 **** 0.06
30580 H 12.655000895115748 72.89066091637415 84.00804983152199 H 0.0 **** 0.06
30581 C 4.009756723615936 59.63687292202803 54.2403306000804 C 0.0 **** -0.24
30582 H 3.1118015141473165 59.3593367424624 54.79375140457708 H 0.0 **** 0.06
30583 H 3.752303889917499 60.36984002357184 53.475701500061575 H 0.0 **** 0.06
30584 H 4.431870857496847 58.75024420479593 53.766981279260136 H 0.0 **** 0.06
30585 H 4.740860150172466 60.06583371171121 54.92533336664971 H 0.0 **** 0.06
30586 C 48.52702582433557 66.61973777827183 40.029578031601 C 0.0 **** -0.24
30587 H 47.696960063217205 67.12901214038351 39.53924560831897 H 0.0 **** 0.06
30588 H 49.36326830819155 67.31044977030894 40.13929977127034 H 0.0 **** 0.06
30589 H 48.83649009300268 65.7669351250895 39.426701759079464 H 0.0 **** 0.06
30590 H 48.21044997379528 66.27324190211164 41.01387310213307 H 0.0 **** 0.06
30591 C 1.3475454731538008 35.611086994157745 78.36076578405675 C 0.0 **** -0.24
30592 H 1.7881994328147783 35.430356664249445 77.38097144156899 H 0.0 **** 0.06
30593 H 0.4558411288175108 34.994123665786475 78.4766496320538 H 0.0 **** 0.06
30594 H 1.0750494777234962 36.66351536720276 78.44813237164601 H 0.0 **** 0.06
30595 H 2.0682786602718295 35.35657658755488 79.13711973082701 H 0.0 **** 0.06
30596 C 47.2369091910316 35.936613054521715 8.288737051449601 C 0.0 **** -0.24
30597 H 47.266219981153085 35.40406302666344 7.338263631603581 H 0.0 **** 0.06
30598 H 46.3533203882763 35.63087979834589 8.849157789029704 H 0.0 **** 0.06
30599 H 47.196405788509935 37.00951450236471 8.101976989014275 H 0.0 **** 0.06
30600 H 48.13190815887606 35.701208299299 8.86439478176888 H 0.0 **** 0.06
30601 C 109.0955379753691 81.21346064186699 47.29013787543499 C 0.0 **** -0.24
30602 H 110.07777271964034 80.88604894590463 46.949535655818664 H 0.0 **** 0.06
30603 H 108.3263674241341 80.78777709654952 46.64590611701601 H 0.0 **** 0.06
30604 H 109.04193554274366 82.30193161124748 47.25066408651182 H 0.0 **** 0.06
30605 H 108.9361408944971 80.87955020315312 48.31536700754401 H 0.0 **** 0.06
30606 C 76.72251603789886 108.5271993748789 54.52322091625075 C 0.0 **** -0.24
30607 H 76.49860572010985 107.4732745882038 54.688439281780944 H 0.0 **** 0.06
30608 H 77.19227822203814 108.64978604188204 53.547713691955835 H 0.0 **** 0.06
30609 H 77.3984143658333 108.8810724855118 55.301153826529685 H 0.0 **** 0.06
30610 H 75.79753198600139 109.10407884898467 54.55602400872169 H 0.0 **** 0.06
30611 C 90.43632848397743 108.03329239216637 48.45645939348137 C 0.0 **** -0.24
30612 H 89.54932873402103 108.4086242103997 48.96563008307831 H 0.0 **** 0.06
30613 H 90.16184499611782 107.18997014502986 47.82264333119659 H 0.0 **** 0.06
30614 H 91.16925932380818 107.70891838936473 49.19533914962571 H 0.0 **** 0.06
30615 H 90.86555683575537 108.8252476787292 47.8428379891817 H 0.0 **** 0.06
30616 C 50.295126702871286 36.46724269733025 3.6053414603012612 C 0.0 **** -0.24
30617 H 50.011823381566906 37.517324745063206 3.6784531614626985 H 0.0 **** 0.06
30618 H 50.490863999160766 36.073441394913104 4.601997748162603 H 0.0 **** 0.06
30619 H 51.19279710170212 36.37504922258 2.99371933473698 H 0.0 **** 0.06
30620 H 49.48321798729483 35.90468382645088 3.1442957452364197 H 0.0 **** 0.06
30621 C 75.86738299068179 96.38781017209087 2.7842454619557095 C 0.0 **** -0.24
30622 H 75.01807523713757 96.6321866075013 3.420718380505461 H 0.0 **** 0.06
30623 H 76.68478705086534 97.08057622199499 2.9854722457399685 H 0.0 **** 0.06
30624 H 75.57162481918755 96.46848841676095 1.7377013497214513 H 0.0 **** 0.06
30625 H 76.19522701846017 95.36887725403511 2.9903095184836523 H 0.0 **** 0.06
30626 C 26.451021863071162 15.978204424602097 87.04864983939174 C 0.0 **** -0.24
30627 H 25.538074111816513 15.46391666697096 86.74832351874431 H 0.0 **** 0.06
30628 H 26.76813406783475 16.651517921439392 86.25149599858969 H 0.0 **** 0.06
30629 H 27.23500034811653 15.244739071816085 87.23878068198547 H 0.0 **** 0.06
30630 H 26.261987509906135 16.552340297756217 87.95566273816857 H 0.0 **** 0.06
30631 C 109.17319602412142 51.83991827853214 55.70731630091926 C 0.0 **** -0.24
30632 H 109.54123970168882 50.831197597659695 55.515652741062 H 0.0 **** 0.06
30633 H 108.14649475717192 51.787816460353554 56.07081093256926 H 0.0 **** 0.06
30634 H 109.2032413275774 52.41919567331098 54.78505640890753 H 0.0 **** 0.06
30635 H 109.80148723365086 52.31879398675312 56.45862357913816 H 0.0 **** 0.06
30636 C 77.7048311844419 10.795470392914552 89.4917314531964 C 0.0 **** -0.24
30637 H 78.27849380698328 10.968076012024227 90.40236358921493 H 0.0 **** 0.06
30638 H 77.50312744536862 9.728928576949727 89.38748366832485 H 0.0 **** 0.06
30639 H 78.27781594084183 11.14283177341241 88.63154892931937 H 0.0 **** 0.06
30640 H 76.76358477425373 11.341515310734025 89.54575433544852 H 0.0 **** 0.06
30641 C 36.90666373551278 24.939538910819664 12.059732005860326 C 0.0 **** -0.24
30642 H 36.82680905035926 25.6221049147712 11.2126993252933 H 0.0 **** 0.06
30643 H 37.304337787130805 25.476093108578 12.920829734604226 H 0.0 **** 0.06
30644 H 37.574443332385385 24.118351198940616 11.802519161874812 H 0.0 **** 0.06
30645 H 35.92018908822172 24.54430382525132 12.300890362415714 H 0.0 **** 0.06
30646 C 67.04351595372788 54.87222643698644 99.40168305995641 C 0.0 **** -0.24
30647 H 66.57783265607156 53.89142765527 99.49736586383074 H 0.0 **** 0.06
30648 H 68.10446001580854 54.79610171329259 99.64123921612924 H 0.0 **** 0.06
30649 H 66.56470349797891 55.56981235985309 100.08823302399799 H 0.0 **** 0.06
30650 H 66.92639312691446 55.231189497621706 98.37870886287419 H 0.0 **** 0.06
30651 C 38.32974459502279 47.1249190513671 75.03650899246259 C 0.0 **** -0.24
30652 H 37.260729543403926 47.024094304403945 74.84979647677852 H 0.0 **** 0.06
30653 H 38.60484591965306 48.179589762837054 75.01847140602493 H 0.0 **** 0.06
30654 H 38.8846540288923 46.590954028822125 74.26564894207044 H 0.0 **** 0.06
30655 H 38.5678698765561 46.7029620960094 76.01382734894605 H 0.0 **** 0.06
30656 C 54.28944428123382 26.716597761596404 38.09251425258418 C 0.0 **** -0.24
30657 H 53.595849548032994 26.562314379983718 38.919111721783395 H 0.0 **** 0.06
30658 H 54.92749898720634 25.839002527381098 37.985270485035414 H 0.0 **** 0.06
30659 H 54.906586119124654 27.592149936032257 38.295671253377066 H 0.0 **** 0.06
30660 H 53.72818118550882 26.87283440802625 37.17169983408692 H 0.0 **** 0.06
30661 C 110.65495111810202 37.873554652399775 62.575374662445746 C 0.0 **** -0.24
30662 H 110.21366180837805 37.51915360345352 63.50683267153928 H 0.0 **** 0.06
30663 H 111.47807515826861 38.55341331017215 62.80018465598072 H 0.0 **** 0.06
30664 H 109.89958742764327 38.39723177922973 61.99095250944929 H 0.0 **** 0.06
30665 H 111.03139976666358 37.0240520872882 62.00505876191445 H 0.0 **** 0.06
30666 C 57.21876591313176 35.07469161784974 48.6118209986968 C 0.0 **** -0.24
30667 H 57.39701352321873 35.3820329486698 47.581373288822206 H 0.0 **** 0.06
30668 H 58.00662575712644 34.39074067098511 48.92840494367859 H 0.0 **** 0.06
30669 H 56.25310398935403 34.5743406856098 48.68004379236238 H 0.0 **** 0.06
30670 H 57.22004674205519 35.95307146160144 49.25753658771254 H 0.0 **** 0.06
30671 C 32.4965135039231 58.32392487455235 99.15432794482481 C 0.0 **** -0.24
30672 H 32.67306412573322 59.06861111857813 99.93017950360417 H 0.0 **** 0.06
30673 H 31.8509561252354 58.748144479919034 98.38445596775347 H 0.0 **** 0.06
30674 H 32.01360556438141 57.44985358510834 99.59265289528358 H 0.0 **** 0.06
30675 H 33.44731803002651 58.029664727422556 98.71068499049281 H 0.0 **** 0.06
30676 C 59.46438210057267 15.534400668163613 17.794970585065812 C 0.0 **** -0.24
30677 H 59.87922444408431 14.87775806965914 18.560487263451407 H 0.0 **** 0.06
30678 H 58.470527224106796 15.863019710327443 18.09933617919762 H 0.0 **** 0.06
30679 H 59.394875639427234 14.993104138664755 16.852270622859336 H 0.0 **** 0.06
30680 H 60.11214328310633 16.40220988379341 17.67026688391175 H 0.0 **** 0.06
30681 C 72.10938301198513 68.98378960849669 11.246570682687235 C 0.0 **** -0.24
30682 H 72.03525689153815 68.22142386383388 12.022363312673377 H 0.0 **** 0.06
30683 H 71.23646220525899 69.63585960039433 11.29386185969841 H 0.0 **** 0.06
30684 H 72.15223864668593 68.50326450283757 10.2684825064172 H 0.0 **** 0.06
30685 H 73.01306945184785 69.5734232931527 11.402154582575093 H 0.0 **** 0.06
30686 C 86.00685480054887 18.75722896976398 95.7397415863528 C 0.0 **** -0.24
30687 H 86.38649046598232 19.689185706205766 95.3209232592742 H 0.0 **** 0.06
30688 H 85.79198309856122 18.896116286604865 96.80022165058384 H 0.0 **** 0.06
30689 H 86.75579181236722 17.974131840984704 95.62047028093906 H 0.0 **** 0.06
30690 H 85.09447515097142 18.470114579689238 95.21827536714179 H 0.0 **** 0.06
30691 C 57.63473071237476 7.863160008968123 22.387529880746456 C 0.0 **** -0.24
30692 H 58.031008138256915 8.823854685072291 22.05754295101795 H 0.0 **** 0.06
30693 H 56.71863879586284 8.025078518258766 22.955876963834385 H 0.0 **** 0.06
30694 H 58.37064101548892 7.365141772953621 23.018565723215147 H 0.0 **** 0.06
30695 H 57.419833680809504 7.2416027920749855 21.518713306702352 H 0.0 **** 0.06
30696 C 61.42286925929284 57.27074531352051 40.807966868956285 C 0.0 **** -0.24
30697 H 62.35846719970391 56.733685451223664 40.64830580906349 H 0.0 **** 0.06
30698 H 61.20833370740593 57.31791009117333 41.875422885989884 H 0.0 **** 0.06
30699 H 60.613858097274374 56.750436130226916 40.29656134800642 H 0.0 **** 0.06
30700 H 61.51335773053631 58.28166777237087 40.40956876128494 H 0.0 **** 0.06
30701 C 55.427590765662075 37.660171110857064 59.15078290354427 C 0.0 **** -0.24
30702 H 55.88479947406977 38.572169220215045 59.53610238184365 H 0.0 **** 0.06
30703 H 56.090706524193976 37.20531839000229 58.415819089394176 H 0.0 **** 0.06
30704 H 54.47457858167194 37.903781821398326 58.68090419213496 H 0.0 **** 0.06
30705 H 55.26062606978793 36.96333508331182 59.9721803308131 H 0.0 **** 0.06
30706 C 70.48679179890536 26.813580574035484 44.01685842137084 C 0.0 **** -0.24
30707 H 70.41368051101114 27.68080847677082 44.67258996317304 H 0.0 **** 0.06
30708 H 71.22546838680361 27.009150228528796 43.23884758584103 H 0.0 **** 0.06
30709 H 69.51659259914024 26.623137834516996 43.55705790513582 H 0.0 **** 0.06
30710 H 70.79125579720406 25.943198759645355 44.597496450582014 H 0.0 **** 0.06
30711 C 86.78394273411254 55.69806550472171 22.19745690351803 C 0.0 **** -0.24
30712 H 86.39916577685739 54.93167674574104 22.87048317946521 H 0.0 **** 0.06
30713 H 87.4727348644758 56.34577171824361 22.742270269415428 H 0.0 **** 0.06
30714 H 85.95598740472758 56.29186940212534 21.81102028975448 H 0.0 **** 0.06
30715 H 87.30940198267967 55.22387559091476 21.36934409970587 H 0.0 **** 0.06
30716 C 35.82225893297536 63.15848627193825 14.796529569175604 C 0.0 **** -0.24
30717 H 36.36584865746849 62.886344873936075 15.700612858147139 H 0.0 **** 0.06
30718 H 36.51627399927264 63.580430293086614 14.069179064808964 H 0.0 **** 0.06
30719 H 35.05715241248164 63.895429087936456 15.040494078165551 H 0.0 **** 0.06
30720 H 35.34965284116356 62.27001476653985 14.375928400388261 H 0.0 **** 0.06
30721 C 17.586125703903065 36.71180724702438 111.21069035913334 C 0.0 **** -0.24
30722 H 16.495689533922757 36.72134252044549 111.1882735144778 H 0.0 **** 0.06
30723 H 17.94015623903067 35.68135033050726 111.1851306685958 H 0.0 **** 0.06
30724 H 17.933749760593628 37.193476528967636 112.12488707546822 H 0.0 **** 0.06
30725 H 17.9717641266202 37.25145673885373 110.34545175072725 H 0.0 **** 0.06
30726 C 100.49246507009593 83.09138588954619 17.295782768142374 C 0.0 **** -0.24
30727 H 100.48901033469997 83.38860573940863 18.344024039019843 H 0.0 **** 0.06
30728 H 99.51379075869724 82.69046033830946 17.027835364314683 H 0.0 **** 0.06
30729 H 101.25366584878878 82.32792917242594 17.136696072031782 H 0.0 **** 0.06
30730 H 100.7126834833283 83.95820651895093 16.673033048515805 H 0.0 **** 0.06
30731 C 96.9793546048266 33.3236304958325 91.58738465103585 C 0.0 **** -0.24
30732 H 96.50786823737431 32.652561499419285 92.30675139448584 H 0.0 **** 0.06
30733 H 97.54394345905146 32.73857778162608 90.86122340761514 H 0.0 **** 0.06
30734 H 97.65252456347048 34.00249104274091 92.11168227588539 H 0.0 **** 0.06
30735 H 96.21094078893091 33.899647508615715 91.0718480429197 H 0.0 **** 0.06
30736 C 98.45523513792094 92.9019751423472 112.09160576204425 C 0.0 **** -0.24
30737 H 98.50056070609381 93.74047624986648 112.78589519933206 H 0.0 **** 0.06
30738 H 97.42268231164613 92.56433897634116 111.99480725366152 H 0.0 **** 0.06
30739 H 99.07135487702325 92.08553728164912 112.46757523392682 H 0.0 **** 0.06
30740 H 98.82725878359338 93.21864556156851 111.11642591680913 H 0.0 **** 0.06
30741 C 29.896822533238293 54.12473285731852 63.63357062820086 C 0.0 **** -0.24
30742 H 29.40285342663276 54.576916116314294 62.7729497646672 H 0.0 **** 0.06
30743 H 30.904836994313314 54.530050370636786 63.7274589185962 H 0.0 **** 0.06
30744 H 29.95080683114024 53.04475508917557 63.49481498237901 H 0.0 **** 0.06
30745 H 29.32870902211161 54.347422925648175 64.5368344705214 H 0.0 **** 0.06
30746 C 57.93257832180175 112.48556997602178 48.29194231839203 C 0.0 **** -0.24
30747 H 58.732346343005084 113.19990868673406 48.09167295751823 H 0.0 **** 0.06
30748 H 56.976602139335334 113.00881293422896 48.312983604821966 H 0.0 **** 0.06
30749 H 58.106681554549105 112.00697684433315 49.25564458952153 H 0.0 **** 0.06
30750 H 57.91695276892697 111.72954925652961 47.507262848023856 H 0.0 **** 0.06
30751 C 91.67413382292187 16.256728333661158 67.50899725081774 C 0.0 **** -0.24
30752 H 92.46754577328258 15.589919497049493 67.84632621816499 H 0.0 **** 0.06
30753 H 91.00830848808306 16.480559356802075 68.34329801462235 H 0.0 **** 0.06
30754 H 91.10836657229157 15.774254862938847 66.71205550172294 H 0.0 **** 0.06
30755 H 92.11136077729773 17.181884514863356 67.13436812459383 H 0.0 **** 0.06
30756 C 19.441028022566513 65.77913739725523 112.0186880445551 C 0.0 **** -0.24
30757 H 19.82344757086446 65.04471796347747 111.30906290728826 H 0.0 **** 0.06
30758 H 18.431390028714645 65.50252212733463 112.31946770527838 H 0.0 **** 0.06
30759 H 19.423967142670676 66.76233118592609 111.54792024905798 H 0.0 **** 0.06
30760 H 20.087516984201216 65.80699279444315 112.89528169868498 H 0.0 **** 0.06
30761 C 43.77875616042431 9.75343669351065 32.67762470830479 C 0.0 **** -0.24
30762 H 43.85620153492741 9.174791799265506 31.758251239550766 H 0.0 **** 0.06
30763 H 44.52871030642788 9.406445889236807 33.38956757171079 H 0.0 **** 0.06
30764 H 42.78456443719398 9.623338344958484 33.1056897198244 H 0.0 **** 0.06
30765 H 43.94523383874332 10.808073389692368 32.45976472206125 H 0.0 **** 0.06
30766 C 41.35427901638806 36.87409884660934 55.281972585790584 C 0.0 **** -0.24
30767 H 40.836190041357554 37.317181204218684 56.13230146964872 H 0.0 **** 0.06
30768 H 41.28554149076187 37.54468040930777 54.42530233383417 H 0.0 **** 0.06
30769 H 40.89265466863014 35.917841733957744 55.033967064776675 H 0.0 **** 0.06
30770 H 42.402442303441006 36.71616092839605 55.53794286647917 H 0.0 **** 0.06
30771 C 85.72836838906721 112.16549139600247 31.925544643758286 C 0.0 **** -0.24
30772 H 85.5906724242453 112.77318658934207 31.030494458141504 H 0.0 **** 0.06
30773 H 84.7659808382976 112.01833972214563 32.414983032612724 H 0.0 **** 0.06
30774 H 86.40961411278991 112.67364653372454 32.608341124253855 H 0.0 **** 0.06
30775 H 86.14687366726645 111.19852404162727 31.64698434787394 H 0.0 **** 0.06
30776 C 109.2205337030276 112.59344161387664 98.11981907163624 C 0.0 **** -0.24
30777 H 108.16742862438159 112.86252964784322 98.19338973182982 H 0.0 **** 0.06
30778 H 109.82725474261213 113.37280102209976 98.58427473159514 H 0.0 **** 0.06
30779 H 109.49829728550318 112.49418561467236 97.07054693276021 H 0.0 **** 0.06
30780 H 109.39099568416489 111.64659594106804 98.63139147896518 H 0.0 **** 0.06
30781 C 3.4170371211884003 14.438628861072857 5.429494840352206 C 0.0 **** -0.24
30782 H 3.120182774483226 14.827438145746555 4.45488656700465 H 0.0 **** 0.06
30783 H 3.4564415852590855 13.35017663455065 5.389240435800886 H 0.0 **** 0.06
30784 H 2.691022018208571 14.748957266316012 6.1800863846447385 H 0.0 **** 0.06
30785 H 4.400342516572437 14.828670695609361 5.691657454977076 H 0.0 **** 0.06
30786 C 31.26803411830619 76.86835680421956 9.200781903910794 C 0.0 **** -0.24
30787 H 31.01578676155828 77.58542973330944 9.98138617108296 H 0.0 **** 0.06
30788 H 30.4927179032236 76.87846507227769 8.43461743969877 H 0.0 **** 0.06
30789 H 31.33896500217898 75.8706610023508 9.632552926042464 H 0.0 **** 0.06
30790 H 32.22481523442416 77.14004812015605 8.75380073263463 H 0.0 **** 0.06
30791 C 69.61283030352814 90.66329090918515 52.39806726699774 C 0.0 **** -0.24
30792 H 70.52482791449992 90.09392399693118 52.21821433887132 H 0.0 **** 0.06
30793 H 69.84866636196688 91.5442036602629 52.99635444859763 H 0.0 **** 0.06
30794 H 68.89618046495454 90.04177130890568 52.93282202995215 H 0.0 **** 0.06
30795 H 69.18500711487283 90.97479332485119 51.44548660454882 H 0.0 **** 0.06
30796 C 80.04433360377897 61.76713599123241 24.450489401940963 C 0.0 **** -0.24
30797 H 80.1683255178138 62.13511447775983 25.469289806518436 H 0.0 **** 0.06
30798 H 79.16793884133358 62.23407563756018 24.000966342847253 H 0.0 **** 0.06
30799 H 79.91203406640062 60.68545579094956 24.468410129298743 H 0.0 **** 0.06
30800 H 80.92993258119321 62.01584737251352 23.865134357245605 H 0.0 **** 0.06
30801 C 54.606316263371845 50.89192184663459 41.99445732618145 C 0.0 **** -0.24
30802 H 54.96995442451977 51.68744383980192 42.64498668425105 H 0.0 **** 0.06
30803 H 53.60312158032796 50.59881727974894 42.30481769833034 H 0.0 **** 0.06
30804 H 55.27443453260042 50.03284708228271 42.06280183384757 H 0.0 **** 0.06
30805 H 54.57882727564461 51.2494818244368 40.965408942513704 H 0.0 **** 0.06
30806 C 75.01651782228336 49.84861004346374 40.18003227295338 C 0.0 **** -0.24
30807 H 74.28045142965041 50.447572364543305 39.64492973682533 H 0.0 **** 0.06
30808 H 74.51570633219671 49.26546843087567 40.95380367656932 H 0.0 **** 0.06
30809 H 75.75309773210745 50.50609789257351 40.64143571191155 H 0.0 **** 0.06
30810 H 75.51455334113871 49.175686801263964 39.482740896417766 H 0.0 **** 0.06
30811 C 19.779456984789732 28.899306477329162 28.99842850521562 C 0.0 **** -0.24
30812 H 19.94141328169826 28.801753154961858 27.92467810125288 H 0.0 **** 0.06
30813 H 18.92164893912016 29.54834341594011 29.176921772607997 H 0.0 **** 0.06
30814 H 20.66549348944085 29.332172074827326 29.461095756502502 H 0.0 **** 0.06
30815 H 19.587586264308953 27.916468339952075 29.42729344091974 H 0.0 **** 0.06
30816 C 57.998591207919084 108.43699297529383 42.17221399982 C 0.0 **** -0.24
30817 H 58.035584508926654 107.77041801144448 43.03492067531454 H 0.0 **** 0.06
30818 H 59.00836811909674 108.59943898234053 41.795614397190576 H 0.0 **** 0.06
30819 H 57.56337991467201 109.39131233892576 42.470447343747395 H 0.0 **** 0.06
30820 H 57.386158608440596 107.98705542620895 41.39136263485898 H 0.0 **** 0.06
30821 C 37.3047343806619 7.473688689045801 109.36792641353165 C 0.0 **** -0.24
30822 H 38.260566219361806 6.998615485217854 109.58959588897453 H 0.0 **** 0.06
30823 H 37.24466625988015 8.430044437550492 109.88872673008882 H 0.0 **** 0.06
30824 H 36.49214594867857 6.827643785560028 109.70020854007548 H 0.0 **** 0.06
30825 H 37.22151522385735 7.638558880121977 108.29416772420214 H 0.0 **** 0.06
30826 C 100.99015398901344 106.57572658029983 15.180914056102466 C 0.0 **** -0.24
30827 H 100.95903364535201 107.17660195285643 16.089735652134948 H 0.0 **** 0.06
30828 H 99.9888808025712 106.513591608099 14.752730994244928 H 0.0 **** 0.06
30829 H 101.34603629414443 105.57337786240754 15.420134142009942 H 0.0 **** 0.06
30830 H 101.66564035522384 107.03989985031157 14.461849543484476 H 0.0 **** 0.06
30831 C 7.506394337147384 81.22557029516133 76.5496196069004 C 0.0 **** -0.24
30832 H 8.52182536926496 81.50700954166933 76.26880433037283 H 0.0 **** 0.06
30833 H 6.878984420221926 82.11601076886714 76.58648336111088 H 0.0 **** 0.06
30834 H 7.520388363650966 80.74976741135708 77.53030262664637 H 0.0 **** 0.06
30835 H 7.106112385417802 80.52800929965218 75.81377898805414 H 0.0 **** 0.06
30836 C 93.36034446951265 35.80347018496707 81.11023959438529 C 0.0 **** -0.24
30837 H 92.78045191341437 36.65891742364619 80.7622423309972 H 0.0 **** 0.06
30838 H 93.19843942976573 35.66736370014718 82.18032850213848 H 0.0 **** 0.06
30839 H 94.41868932652545 35.98158684404001 80.92171382145318 H 0.0 **** 0.06
30840 H 93.04108297599677 34.90848045219445 80.577411484109 H 0.0 **** 0.06
30841 C 28.71521406441414 101.02739467711518 37.007691467242104 C 0.0 **** -0.24
30842 H 29.357810474844605 100.19735466604408 37.30210758426661 H 0.0 **** 0.06
30843 H 28.882980387619348 101.26060068873227 35.95601621693446 H 0.0 **** 0.06
30844 H 28.95039304464374 101.90102446250305 37.61545064988839 H 0.0 **** 0.06
30845 H 27.672095742447993 100.75034654686388 37.15744407257026 H 0.0 **** 0.06
30846 C 17.82314918802198 25.608577220029474 51.100569535763555 C 0.0 **** -0.24
30847 H 17.681990836614336 25.88379993429578 50.05513651758679 H 0.0 **** 0.06
30848 H 17.32970109646847 26.34272302369689 51.73865761395649 H 0.0 **** 0.06
30849 H 18.88813615596874 25.58596625104002 51.32883433542406 H 0.0 **** 0.06
30850 H 17.392105873757174 24.6236934305945 51.27821786743533 H 0.0 **** 0.06
30851 C 60.420661134050796 88.1575391382201 33.95283043639914 C 0.0 **** -0.24
30852 H 59.7987985473622 88.13371967436007 34.8477169912847 H 0.0 **** 0.06
30853 H 60.60244462286449 89.19261364713935 33.66428080423319 H 0.0 **** 0.06
30854 H 59.91026823511863 87.6385769080461 33.14189847617007 H 0.0 **** 0.06
30855 H 61.37143043693599 87.6640189349718 34.158062058819255 H 0.0 **** 0.06
30856 C 45.08239847515031 84.82990730150976 48.41992952957054 C 0.0 **** -0.24
30857 H 44.7581353020245 84.34575440973256 49.34136416611826 H 0.0 **** 0.06
30858 H 45.25440346193315 85.88958030549063 48.60666130731798 H 0.0 **** 0.06
30859 H 44.310446024396896 84.7149318288339 47.65847139405429 H 0.0 **** 0.06
30860 H 46.00623430752765 84.36679401295615 48.072097855315306 H 0.0 **** 0.06
30861 C 8.113642414811466 0.4258818753912692 77.00555524988957 C 0.0 **** -0.24
30862 H 8.591711704371107 1.3660851996780252 77.28210706194531 H 0.0 **** 0.06
30863 H 7.204325829933282 0.6331299503864329 76.44033578768986 H 0.0 **** 0.06
30864 H 7.8631680460173925 -0.13256820436653527 77.90691723567298 H 0.0 **** 0.06
30865 H 8.797245258436647 -0.16183853298620932 76.39195495033394 H 0.0 **** 0.06
30866 C 9.819247861351187 60.12422944124423 105.07380532458183 C 0.0 **** -0.24
30867 H 8.848248163335427 60.592080876951364 105.23901447164513 H 0.0 **** 0.06
30868 H 10.156698971148273 59.65244716876716 105.99707433712993 H 0.0 **** 0.06
30869 H 10.539931427516535 60.8831979467003 104.76820847434774 H 0.0 **** 0.06
30870 H 9.730971927200812 59.37111375997544 104.29099085028477 H 0.0 **** 0.06
30871 C 102.69687150444986 111.84260223213637 24.895574579085974 C 0.0 **** -0.24
30872 H 102.04699949803864 112.69090136764213 24.67941867751142 H 0.0 **** 0.06
30873 H 102.43759049239554 111.42578922045777 25.869236588929937 H 0.0 **** 0.06
30874 H 103.73504168398836 112.17367538388852 24.90734762488063 H 0.0 **** 0.06
30875 H 102.56671571673007 111.08060427388652 24.127840960240036 H 0.0 **** 0.06
30876 C 58.00250439090018 56.49856759585191 32.132399141447195 C 0.0 **** -0.24
30877 H 58.10685659259941 57.578238961830806 32.2409752174114 H 0.0 **** 0.06
30878 H 57.60637860624812 56.27070624692854 31.143328415416704 H 0.0 **** 0.06
30879 H 57.319797444166646 56.12231461737778 32.89434554198442 H 0.0 **** 0.06
30880 H 58.977581386441024 56.025977813511645 32.25230394648406 H 0.0 **** 0.06
30881 C 87.46320755571796 93.10548385149795 63.6223752005617 C 0.0 **** -0.24
30882 H 86.90414824438164 92.34153289769469 63.0823826109013 H 0.0 **** 0.06
30883 H 86.83078150410219 93.98184435398562 63.76906544302073 H 0.0 **** 0.06
30884 H 88.34457811480169 93.38567758784967 63.04615757268754 H 0.0 **** 0.06
30885 H 87.77220417959933 92.71332854389101 64.59115416066626 H 0.0 **** 0.06
30886 C 6.3038033868903085 88.59529372455722 69.91289188124702 C 0.0 **** -0.24
30887 H 6.9174162142650175 89.09994754387543 70.6580228192635 H 0.0 **** 0.06
30888 H 5.267741020989547 88.91752665985709 70.01540080801325 H 0.0 **** 0.06
30889 H 6.3648986035179576 87.51701809433544 70.06128813521053 H 0.0 **** 0.06
30890 H 6.665132924648077 88.84540577413227 68.91476544162111 H 0.0 **** 0.06
30891 C 7.69880802908655 17.554101041760063 33.66689952334059 C 0.0 **** -0.24
30892 H 7.604450276902099 17.056653679724544 34.63206951635367 H 0.0 **** 0.06
30893 H 8.70133656949514 17.39192031772533 33.27098118710751 H 0.0 **** 0.06
30894 H 7.524479516009308 18.623012203959718 33.79064077050765 H 0.0 **** 0.06
30895 H 6.963485991228012 17.143964105318464 32.97362132120577 H 0.0 **** 0.06
30896 C 56.304438838276795 3.66236515273215 106.11124960722486 C 0.0 **** -0.24
30897 H 56.76885111119769 4.0644452798050335 107.011796227262 H 0.0 **** 0.06
30898 H 55.33939062167978 3.2227307556168583 106.36597495821107 H 0.0 **** 0.06
30899 H 56.950169155840335 2.897069224771924 105.6804365416902 H 0.0 **** 0.06
30900 H 56.159353331426495 4.464770324951745 105.38813308278336 H 0.0 **** 0.06
30901 C 72.78695721231938 9.299497294796879 34.11271905536955 C 0.0 **** -0.24
30902 H 71.99416174167217 8.666213328814592 34.50849808810608 H 0.0 **** 0.06
30903 H 73.5384379126775 8.678968977123105 33.624270728229305 H 0.0 **** 0.06
30904 H 73.24951668066433 9.854947296897564 34.92967041549659 H 0.0 **** 0.06
30905 H 72.3671106222038 9.998888572969008 33.390165225883834 H 0.0 **** 0.06
30906 C 89.49073620548984 80.5754724001867 89.32890856371847 C 0.0 **** -0.24
30907 H 89.69106041756064 79.67847791739061 89.91558781513683 H 0.0 **** 0.06
30908 H 90.41257279959649 81.14502413946917 89.2113267037794 H 0.0 **** 0.06
30909 H 88.74782354760725 81.18651813118794 89.84309177677517 H 0.0 **** 0.06
30910 H 89.11013517127472 80.29064508057638 88.34839767658676 H 0.0 **** 0.06
30911 C 44.358724268215695 16.983229145820594 29.94721368438944 C 0.0 **** -0.24
30912 H 44.74276585417451 16.739808540712136 28.955894898302034 H 0.0 **** 0.06
30913 H 44.97623151694961 16.500126871175784 30.70411747718974 H 0.0 **** 0.06
30914 H 43.331491753194044 16.630470644986943 30.035452858267718 H 0.0 **** 0.06
30915 H 44.385720528385065 18.064352902065302 30.091418895615277 H 0.0 **** 0.06
30916 C 14.673707574570514 61.35677533172492 55.35757684234452 C 0.0 **** -0.24
30917 H 14.496725200621697 61.36211940088913 54.2816116366702 H 0.0 **** 0.06
30918 H 15.669162096717884 60.9609562182124 55.55851938759642 H 0.0 **** 0.06
30919 H 13.92729044358191 60.73014821652083 55.84469516165834 H 0.0 **** 0.06
30920 H 14.601218650994753 62.37413629990124 55.74220317074387 H 0.0 **** 0.06
30921 C 2.4362876275943677 101.93622407546783 110.62707963340188 C 0.0 **** -0.24
30922 H 2.806666989036785 101.94355249727872 109.60181389727387 H 0.0 **** 0.06
30923 H 2.6995318273959015 100.99021899213503 111.10130881933799 H 0.0 **** 0.06
30924 H 1.3525492393485479 102.05076714526183 110.62268033641885 H 0.0 **** 0.06
30925 H 2.8869104716820857 102.75887582733841 111.18177640044047 H 0.0 **** 0.06
30926 C 13.021608581628527 83.9611145049299 34.05374084375032 C 0.0 **** -0.24
30927 H 13.173436904997573 84.21948227338478 35.10184516058334 H 0.0 **** 0.06
30928 H 13.693453663375081 84.55474061920586 33.43264770021926 H 0.0 **** 0.06
30929 H 11.98875220339707 84.16970869436611 33.774526651834975 H 0.0 **** 0.06
30930 H 13.230888563997638 82.90160162561028 33.9068574612875 H 0.0 **** 0.06
30931 C 91.02620319189563 11.647263100142347 18.410316880269505 C 0.0 **** -0.24
30932 H 91.44172882527198 12.096372827622748 19.312060888516925 H 0.0 **** 0.06
30933 H 91.8366217364696 11.381855984563085 17.73026223132149 H 0.0 **** 0.06
30934 H 90.36185603178421 12.360572719371447 17.92263807022556 H 0.0 **** 0.06
30935 H 90.46596714203073 10.751083631390564 18.6751003045259 H 0.0 **** 0.06
30936 C 50.78177647580412 0.6686940973315529 61.43540867815267 C 0.0 **** -0.24
30937 H 51.37729351674298 1.551163243573356 61.202430084434724 H 0.0 **** 0.06
30938 H 51.37927183103997 -0.027533924903167417 62.02466183214901 H 0.0 **** 0.06
30939 H 50.470695497304604 0.18597834226055454 60.50839919991441 H 0.0 **** 0.06
30940 H 49.90132915586321 0.9651238108981062 62.004195320804826 H 0.0 **** 0.06
30941 C 27.25256132340631 20.43932982258825 14.49821394241662 C 0.0 **** -0.24
30942 H 27.123890741779732 19.83664755090888 13.599479656512443 H 0.0 **** 0.06
30943 H 28.25040401215371 20.87869129499056 14.502072846186895 H 0.0 **** 0.06
30944 H 27.129709509361 19.808325216328 15.379140770141294 H 0.0 **** 0.06
30945 H 26.505456817272602 21.233350428736983 14.513299255665238 H 0.0 **** 0.06
30946 C 104.02525344366836 73.05225568837014 50.580340002441915 C 0.0 **** -0.24
30947 H 104.09173755865905 74.08657641101868 50.24087133982084 H 0.0 **** 0.06
30948 H 103.25232801262092 72.53286728430547 50.013256771478154 H 0.0 **** 0.06
30949 H 103.77362498808301 73.03307831895279 51.64063417272388 H 0.0 **** 0.06
30950 H 104.98422328294285 72.557209775503 50.424677457690336 H 0.0 **** 0.06
30951 C 34.15702871368072 46.59057342311388 70.59378508928253 C 0.0 **** -0.24
30952 H 34.02028781998246 45.55155094956271 70.29662599017036 H 0.0 **** 0.06
30953 H 33.26906188434222 47.16440424795462 70.32969334266824 H 0.0 **** 0.06
30954 H 35.02373754872673 47.00493761120879 70.07809570105397 H 0.0 **** 0.06
30955 H 34.31643486937904 46.64154072381788 71.67071284139627 H 0.0 **** 0.06
30956 C 36.533909027295294 25.166156997387304 37.067529851893255 C 0.0 **** -0.24
30957 H 37.30201690305796 25.608252550208526 37.70224019056127 H 0.0 **** 0.06
30958 H 36.93410532622221 24.27653121002441 36.58007797451057 H 0.0 **** 0.06
30959 H 36.228419866342165 25.88952529374398 36.31152252933265 H 0.0 **** 0.06
30960 H 35.67293856071558 24.891534112159334 37.677337642812915 H 0.0 **** 0.06
30961 C 59.943206042628695 31.504847989366084 6.196433256112243 C 0.0 **** -0.24
30962 H 60.68764832873497 30.92614414801494 6.7429320361317195 H 0.0 **** 0.06
30963 H 59.12440301283451 31.768831302889993 6.865598995875871 H 0.0 **** 0.06
30964 H 59.55784182602839 30.909658036426833 5.367645093936517 H 0.0 **** 0.06
30965 H 60.40330233483578 32.413370743329835 5.8078432443547285 H 0.0 **** 0.06
30966 C 36.47194143167519 80.43061577718788 45.913221130179295 C 0.0 **** -0.24
30967 H 35.62188504553106 80.92345762162336 45.440082126100606 H 0.0 **** 0.06
30968 H 37.39848917705575 80.86406252339802 45.53633042842597 H 0.0 **** 0.06
30969 H 36.44855561093482 79.36593154016381 45.68202005454128 H 0.0 **** 0.06
30970 H 36.417544656632884 80.56970026784296 46.99308866969017 H 0.0 **** 0.06
30971 C 42.336752397521366 76.47441003529667 83.96217210842386 C 0.0 **** -0.24
30972 H 43.1370554816244 77.21195120940143 84.03434182608032 H 0.0 **** 0.06
30973 H 41.498710362245674 76.90047049272556 83.41084697173147 H 0.0 **** 0.06
30974 H 42.009835000884934 76.19604224169808 84.96484098101232 H 0.0 **** 0.06
30975 H 42.70355442995846 75.59053798085279 83.44121645091616 H 0.0 **** 0.06
30976 C 88.37142017734806 88.60393045540559 88.64573086114714 C 0.0 **** -0.24
30977 H 88.69293936759806 89.6445990295664 88.67917759038349 H 0.0 **** 0.06
30978 H 87.8456943841357 88.41533897081209 87.7098745613986 H 0.0 **** 0.06
30979 H 87.70470160822279 88.40375312244345 89.48445833272879 H 0.0 **** 0.06
30980 H 89.24381633649227 87.95278566913856 88.71122032202496 H 0.0 **** 0.06
30981 C 66.27424971018576 99.68947305011432 31.572470902526675 C 0.0 **** -0.24
30982 H 65.91231175770761 99.98415563572354 30.58773060646906 H 0.0 **** 0.06
30983 H 66.11801968011775 98.61972602959509 31.711139115980345 H 0.0 **** 0.06
30984 H 65.72978134652288 100.23897434246356 32.339932875701884 H 0.0 **** 0.06
30985 H 67.33857309102157 99.91542665546478 31.65008017237124 H 0.0 **** 0.06
30986 C 51.570718745400704 54.96129899389379 64.954442349191 C 0.0 **** -0.24
30987 H 52.149188538077134 55.35195794310057 65.79167330863478 H 0.0 **** 0.06
30988 H 52.247460465106705 54.67519642131533 64.14875605703614 H 0.0 **** 0.06
30989 H 50.88416768298293 55.72884089477111 64.59873826408008 H 0.0 **** 0.06
30990 H 51.00355268455116 54.088948485726085 65.28052622049557 H 0.0 **** 0.06
30991 C 15.329381851753169 14.453300154797276 13.787298560989825 C 0.0 **** -0.24
30992 H 14.32811898611061 14.393598764638625 13.360227338482915 H 0.0 **** 0.06
30993 H 15.401766764427748 15.336774285421114 14.422086170938485 H 0.0 **** 0.06
30994 H 16.063205740098056 14.520795534717635 12.98403504590813 H 0.0 **** 0.06
30995 H 15.523469698132828 13.560999823040845 14.382878482519828 H 0.0 **** 0.06
30996 C 103.91625462252003 102.355761174767 58.65074952368502 C 0.0 **** -0.24
30997 H 103.19164852070779 101.77972764275103 59.22529690455542 H 0.0 **** 0.06
30998 H 104.23090453792679 103.22432243190971 59.22896500450565 H 0.0 **** 0.06
30999 H 103.45992743945715 102.68582724873869 57.717566651373716 H 0.0 **** 0.06
31000 H 104.78266974438594 101.73209256344737 58.430259845653836 H 0.0 **** 0.06
31001 C 20.379616455979402 98.88483732889304 27.0073682055947 C 0.0 **** -0.24
31002 H 19.885605129800354 99.01383443114653 26.044631525320654 H 0.0 **** 0.06
31003 H 21.460579640482592 98.85600303766566 26.86037253578897 H 0.0 **** 0.06
31004 H 20.049983145767897 97.95072242155874 27.462351302099847 H 0.0 **** 0.06
31005 H 20.12442214508762 99.71809109123075 27.662132608850527 H 0.0 **** 0.06
31006 C 40.40024710675859 79.23375981443269 41.512937674124146 C 0.0 **** -0.24
31007 H 39.80325464383053 78.96424780035613 42.383878334113774 H 0.0 **** 0.06
31008 H 41.45825712955625 79.10332456834658 41.74310913251696 H 0.0 **** 0.06
31009 H 40.21108487149942 80.27430670985478 41.25068559852161 H 0.0 **** 0.06
31010 H 40.12857667315659 78.59227693239791 40.67450861530227 H 0.0 **** 0.06
31011 C 31.135175701478573 59.1929035299439 103.73542998305084 C 0.0 **** -0.24
31012 H 31.53423310379148 59.18015266624489 102.72180040374673 H 0.0 **** 0.06
31013 H 31.780826850778624 59.800061262147445 104.37176055981826 H 0.0 **** 0.06
31014 H 31.095182243712784 58.17565940051248 104.12371240610901 H 0.0 **** 0.06
31015 H 30.131537388338344 59.61846517083429 103.72509371601848 H 0.0 **** 0.06
31016 C 21.67254152886403 53.53230187119781 73.30467366967363 C 0.0 **** -0.24
31017 H 21.417077380292312 52.79204633959828 74.06282484359224 H 0.0 **** 0.06
31018 H 22.307298591036016 54.30165378783515 73.74719783216807 H 0.0 **** 0.06
31019 H 20.76028943837383 53.98979177871865 72.92123068586656 H 0.0 **** 0.06
31020 H 22.206306846801027 53.04634064750559 72.48842087766909 H 0.0 **** 0.06
31021 C 46.77745649883113 60.90730805202163 79.32835894329895 C 0.0 **** -0.24
31022 H 47.19730796937209 59.901301004442566 79.3531782945094 H 0.0 **** 0.06
31023 H 47.04578449828337 61.38975927349808 78.38780093478255 H 0.0 **** 0.06
31024 H 47.176524750428 61.487032226579736 80.16116915422157 H 0.0 **** 0.06
31025 H 45.693022220860854 60.85014971473475 79.41096340260953 H 0.0 **** 0.06
31026 C 52.33781742465189 43.00669108408135 43.81100047428541 C 0.0 **** -0.24
31027 H 53.128195651199526 42.95426362166818 43.06156264053183 H 0.0 **** 0.06
31028 H 51.390395876266496 42.71230548299827 43.35986091724587 H 0.0 **** 0.06
31029 H 52.26125345614079 44.02715377802767 44.18663893142826 H 0.0 **** 0.06
31030 H 52.574698460184635 42.33339812010744 44.634162845066925 H 0.0 **** 0.06
31031 C 109.40680611715479 55.4541051701778 44.25598420665244 C 0.0 **** -0.24
31032 H 110.18748488279387 55.096366365793955 44.92745945898673 H 0.0 **** 0.06
31033 H 109.52867439173178 54.987981195585135 43.27761156616441 H 0.0 **** 0.06
31034 H 109.48274187518952 56.53686154429328 44.15526283700342 H 0.0 **** 0.06
31035 H 108.42956148618389 55.194098496417446 44.66312529517643 H 0.0 **** 0.06
31036 C 71.51032455010227 25.849280872696454 38.21623026217955 C 0.0 **** -0.24
31037 H 71.42285996603093 25.34044024607259 37.25637165733272 H 0.0 **** 0.06
31038 H 70.66148433288654 25.58320162065074 38.84741058389173 H 0.0 **** 0.06
31039 H 71.51986101761281 26.927282132583315 38.05617179845726 H 0.0 **** 0.06
31040 H 72.43635555432334 25.545528909060124 38.70504899116648 H 0.0 **** 0.06
31041 C 20.008021974469983 41.103062293145 23.92526161710701 C 0.0 **** -0.24
31042 H 19.268654015655585 40.79416173955745 24.6652588797227 H 0.0 **** 0.06
31043 H 19.557188554996685 41.08599261045541 22.933599791019418 H 0.0 **** 0.06
31044 H 20.855519727622067 40.419403031031614 23.952073231566715 H 0.0 **** 0.06
31045 H 20.348262443406185 42.114112428925885 24.15341846210592 H 0.0 **** 0.06
31046 C 94.31243944826335 34.74693664166645 112.00465175538852 C 0.0 **** -0.24
31047 H 94.55118004232008 33.7995791222542 112.48839039415996 H 0.0 **** 0.06
31048 H 93.29923963506289 34.704684191776295 111.60479394714099 H 0.0 **** 0.06
31049 H 95.01708300174406 34.92834650474015 111.19308024740812 H 0.0 **** 0.06
31050 H 94.38183996301527 35.553710736568775 112.73429037580135 H 0.0 **** 0.06
31051 C 11.976574861275424 89.47745116933453 15.333550510797238 C 0.0 **** -0.24
31052 H 12.352446474724175 90.01215322642742 14.461991817313788 H 0.0 **** 0.06
31053 H 11.911099863923141 90.16238043003844 16.179530639813294 H 0.0 **** 0.06
31054 H 12.655139599549685 88.66018387625854 15.579356321757501 H 0.0 **** 0.06
31055 H 10.987185204305746 89.07430958108765 15.113783708188208 H 0.0 **** 0.06
31056 C 27.288395940895384 20.178081283776606 66.71903193308154 C 0.0 **** -0.24
31057 H 28.059896557549962 20.54916808391448 66.04503510576782 H 0.0 **** 0.06
31058 H 27.729346353252254 19.96326709999613 67.6926021709584 H 0.0 **** 0.06
31059 H 26.852876068053575 19.267902137500386 66.30714149598688 H 0.0 **** 0.06
31060 H 26.510242019328246 20.934108588509616 66.83126236104556 H 0.0 **** 0.06
31061 C 68.8663623340777 74.33217810757026 21.2694077668297 C 0.0 **** -0.24
31062 H 69.32482869536676 74.34250767125224 20.27955050461364 H 0.0 **** 0.06
31063 H 69.4994656263467 73.77151515761301 21.956641810476043 H 0.0 **** 0.06
31064 H 67.88573649271814 73.86093934397292 21.21101838496776 H 0.0 **** 0.06
31065 H 68.7574858351233 75.35607648535222 21.628342947276067 H 0.0 **** 0.06
31066 C 45.3276372768286 35.552152611914465 35.48250819074602 C 0.0 **** -0.24
31067 H 45.98767292721473 36.17898775732569 36.08092272023916 H 0.0 **** 0.06
31068 H 45.82759760588837 35.28057277430691 34.55215582890756 H 0.0 **** 0.06
31069 H 44.41219786734584 36.09927317056257 35.256955137957306 H 0.0 **** 0.06
31070 H 45.082063614254025 34.64713743489072 36.03999506186783 H 0.0 **** 0.06
31071 C 43.44912513144344 83.05087808312513 98.15684811476999 C 0.0 **** -0.24
31072 H 42.61417644975524 82.7665688184183 98.79719436927189 H 0.0 **** 0.06
31073 H 44.00700108036803 83.86174919956164 98.62652451152087 H 0.0 **** 0.06
31074 H 43.068620414921014 83.38241619457426 97.19136897978211 H 0.0 **** 0.06
31075 H 44.10543112636867 82.19290955428266 98.01413937708614 H 0.0 **** 0.06
31076 C 61.03847714394985 96.87737507351298 56.83311774414659 C 0.0 **** -0.24
31077 H 61.044929898123485 96.01629315921119 57.49985125267074 H 0.0 **** 0.06
31078 H 60.58753542012158 96.59696747780526 55.88074986273861 H 0.0 **** 0.06
31079 H 62.061949457895 97.2146383261983 56.665694994678375 H 0.0 **** 0.06
31080 H 60.459846672610155 97.683182185367 57.285561229956585 H 0.0 **** 0.06
31081 C 92.18748893948165 9.660227583300085 45.06523928004003 C 0.0 **** -0.24
31082 H 91.25683329358415 9.096779308466509 45.003316248690936 H 0.0 **** 0.06
31083 H 92.98766992008703 9.093604537747183 44.58920135682564 H 0.0 **** 0.06
31084 H 92.43786029199103 9.834781225829644 46.11211972152651 H 0.0 **** 0.06
31085 H 92.06686256028482 10.617009552612345 44.55725214868323 H 0.0 **** 0.06
31086 C 79.12047763523435 88.37812448283412 50.50359060805331 C 0.0 **** -0.24
31087 H 79.42017520733438 89.3512238405882 50.11211582958511 H 0.0 **** 0.06
31088 H 78.28646327751332 88.50610888190877 51.194883985231805 H 0.0 **** 0.06
31089 H 79.96037921162164 87.923488509361 51.028040615943866 H 0.0 **** 0.06
31090 H 78.81468716576387 87.73410432486071 49.679576307600726 H 0.0 **** 0.06
31091 C 43.2337905058406 111.41750032001804 19.83728890649094 C 0.0 **** -0.24
31092 H 42.99496297111034 111.349396774063 18.77534503835841 H 0.0 **** 0.06
31093 H 43.99341123061703 112.18408928132371 19.990638552845525 H 0.0 **** 0.06
31094 H 43.61055151524056 110.45625163512682 20.186958041180375 H 0.0 **** 0.06
31095 H 42.33465066505909 111.67891529365914 20.394922413126352 H 0.0 **** 0.06
31096 C 47.96378752182131 86.77211059429567 102.37679469522791 C 0.0 **** -0.24
31097 H 48.763517015152935 87.4888197148446 102.56278702947702 H 0.0 **** 0.06
31098 H 47.011515961517425 87.20067992723372 102.69060138901398 H 0.0 **** 0.06
31099 H 48.156075304311265 85.85914198825114 102.94176036837649 H 0.0 **** 0.06
31100 H 47.925262647792394 86.53825361650925 101.31308650593598 H 0.0 **** 0.06
31101 C 60.599725472947746 108.93507900155723 75.68768919333715 C 0.0 **** -0.24
31102 H 61.50382704874763 108.81093323138533 75.0925198916031 H 0.0 **** 0.06
31103 H 60.21262634252272 109.94563096063305 75.55379579848315 H 0.0 **** 0.06
31104 H 60.83130253364755 108.77197251812125 76.74005305957758 H 0.0 **** 0.06
31105 H 59.84993401556938 108.21240063482838 75.36400693884286 H 0.0 **** 0.06
31106 C 13.810302311468377 67.95115002882613 53.700071441956446 C 0.0 **** -0.24
31107 H 14.714773925883208 68.4748710898541 53.38968978665482 H 0.0 **** 0.06
31108 H 13.189510294006283 68.62165651987101 54.294043400088434 H 0.0 **** 0.06
31109 H 14.082312049496693 67.08195519573746 54.299478209131934 H 0.0 **** 0.06
31110 H 13.257825439983833 67.62747174987379 52.81843318195031 H 0.0 **** 0.06
31111 C 85.50852355764212 39.14392105020369 38.45128260481525 C 0.0 **** -0.24
31112 H 84.8599369444535 39.07135256006751 37.57824846453599 H 0.0 **** 0.06
31113 H 86.51934048584411 39.39922617333724 38.13176128500234 H 0.0 **** 0.06
31114 H 85.52267763231771 38.18665804753897 38.9724482207442 H 0.0 **** 0.06
31115 H 85.13179049896686 39.91648498177574 39.12043017843902 H 0.0 **** 0.06
31116 C 110.7735830738232 54.05406093617079 110.7167807711535 C 0.0 **** -0.24
31117 H 110.70615642320581 53.27704098038008 111.47881953410115 H 0.0 **** 0.06
31118 H 110.84722939083582 53.59101217231839 109.73222477295727 H 0.0 **** 0.06
31119 H 111.65823624049443 54.66424546603553 110.89899769135548 H 0.0 **** 0.06
31120 H 109.88404948757807 54.681630165126556 110.75800186203156 H 0.0 **** 0.06
31121 C 20.6915433244113 80.85250042394455 52.34888797888984 C 0.0 **** -0.24
31122 H 21.704791526134766 80.70002617165153 51.97706130162046 H 0.0 **** 0.06
31123 H 20.52293553771982 81.91669219393066 52.517012167592384 H 0.0 **** 0.06
31124 H 20.563490399322117 80.31083103761455 53.28681878350688 H 0.0 **** 0.06
31125 H 19.976218821042668 80.48187097814355 51.61491860662475 H 0.0 **** 0.06
31126 C 21.03034577147021 76.25386044970725 40.83154371780809 C 0.0 **** -0.24
31127 H 20.77459391740679 75.19453712440949 40.84017190558906 H 0.0 **** 0.06
31128 H 20.908945289750164 76.64853166637513 39.822129026867 H 0.0 **** 0.06
31129 H 22.065589705187108 76.38043330115062 41.148836514761754 H 0.0 **** 0.06
31130 H 20.37251922397462 76.79203361264442 41.51332830138979 H 0.0 **** 0.06
31131 C 16.31617645028311 12.363836221485847 84.2616193428434 C 0.0 **** -0.24
31132 H 16.59056924152731 11.3134517781297 84.36346999976462 H 0.0 **** 0.06
31133 H 15.296647691668895 12.508869948130357 84.61924167607108 H 0.0 **** 0.06
31134 H 16.379330287079053 12.655390939173312 83.21307566319294 H 0.0 **** 0.06
31135 H 16.999690368474994 12.97528089793714 84.8510440982156 H 0.0 **** 0.06
31136 C 50.87122915064605 29.70511579647421 0.9693859506485722 C 0.0 **** -0.24
31137 H 51.871648328438134 29.27414987522529 0.9261742377986906 H 0.0 **** 0.06
31138 H 50.83993277450489 30.472206500789817 1.744314257700367 H 0.0 **** 0.06
31139 H 50.148652687104516 28.92269653316204 1.2033534558007233 H 0.0 **** 0.06
31140 H 50.62459459297447 30.15101660424991 0.006117959660514316 H 0.0 **** 0.06
31141 C 90.79116711718152 21.0760014837864 101.8919134740378 C 0.0 **** -0.24
31142 H 90.02108063639227 21.308273398461495 102.6284085748612 H 0.0 **** 0.06
31143 H 90.328266597853 20.935041277332175 100.91509940216378 H 0.0 **** 0.06
31144 H 91.30766763304896 20.16100108481612 102.18416328288549 H 0.0 **** 0.06
31145 H 91.50560870401222 21.896724885180674 101.84099567509239 H 0.0 **** 0.06
31146 C 37.978919484925484 89.11517346119675 8.0279483559072 C 0.0 **** -0.24
31147 H 38.24323660833281 88.77349808217454 9.029143558706721 H 0.0 **** 0.06
31148 H 37.70459395770064 88.25810129342176 7.412763664879037 H 0.0 **** 0.06
31149 H 38.83224276014107 89.62538176253548 7.58168695303884 H 0.0 **** 0.06
31150 H 37.13584907535389 89.80329616981155 8.090140113400679 H 0.0 **** 0.06
31151 C 100.34328484307693 65.83829766911899 68.49726518668291 C 0.0 **** -0.24
31152 H 100.68894733319829 66.7058261703726 67.93498577188944 H 0.0 **** 0.06
31153 H 99.62897383620805 65.27663067185546 67.89446305096732 H 0.0 **** 0.06
31154 H 99.86097014476519 66.17091844527567 69.41662004854501 H 0.0 **** 0.06
31155 H 101.19328154763687 65.20245687296574 68.74154654249537 H 0.0 **** 0.06
31156 C 78.95376169591955 86.99638059015379 11.01083261356436 C 0.0 **** -0.24
31157 H 78.86594618039197 86.84927451258918 12.086883531414912 H 0.0 **** 0.06
31158 H 78.37740997361848 86.22969327456764 10.491373529591726 H 0.0 **** 0.06
31159 H 80.00142343975426 86.9250885111575 10.71785015136274 H 0.0 **** 0.06
31160 H 78.56850701092031 87.98090134567602 10.746459637316718 H 0.0 **** 0.06
31161 C 18.88439484607173 69.06031419651998 1.871363329619669 C 0.0 **** -0.24
31162 H 17.965338314714984 68.7152759070602 1.398714406450381 H 0.0 **** 0.06
31163 H 19.678169668165324 68.33385381318195 1.6958063199783595 H 0.0 **** 0.06
31164 H 18.72224437063349 69.17083866477068 2.9434248666405267 H 0.0 **** 0.06
31165 H 19.17206941017288 70.02212530158138 1.446393740129551 H 0.0 **** 0.06
31166 C 59.297419569852366 30.182152743879954 94.21986047599393 C 0.0 **** -0.24
31167 H 59.91284259092046 29.737602922625882 93.43822417490185 H 0.0 **** 0.06
31168 H 58.914561325121554 29.395773107632095 94.87124982861673 H 0.0 **** 0.06
31169 H 58.462908737030574 30.71612948331645 93.76419836241476 H 0.0 **** 0.06
31170 H 59.899010445417844 30.878402183928387 94.80459507646657 H 0.0 **** 0.06
31171 C 71.70395178781155 48.23331487927618 3.5076148992470166 C 0.0 **** -0.24
31172 H 71.76897393037416 47.20094942293804 3.1642345493706756 H 0.0 **** 0.06
31173 H 71.92509798336573 48.90608025829499 2.6790121629346118 H 0.0 **** 0.06
31174 H 72.42364553090476 48.394872790065875 4.309692393513416 H 0.0 **** 0.06
31175 H 70.69728376189227 48.42908965297252 3.8779784466330227 H 0.0 **** 0.06
31176 C 110.81441366016483 6.767414850332017 2.4479210072851743 C 0.0 **** -0.24
31177 H 110.22548175252324 6.047945698933347 3.0170745503892817 H 0.0 **** 0.06
31178 H 110.22251183690274 7.140454678292002 1.61220161748696 H 0.0 **** 0.06
31179 H 111.71472618080786 6.283448968454621 2.070605852327901 H 0.0 **** 0.06
31180 H 111.09349172616339 7.600020703257883 3.094969237392206 H 0.0 **** 0.06
31181 C 83.43354833947677 81.79019491205531 39.0409715849305 C 0.0 **** -0.24
31182 H 82.83644652971688 81.96750518707907 39.93532882351826 H 0.0 **** 0.06
31183 H 82.7724248947674 81.62613956175235 38.18998978351931 H 0.0 **** 0.06
31184 H 84.05975735501511 80.9107896435811 39.190490874223144 H 0.0 **** 0.06
31185 H 84.06531463192991 82.658183208438 38.84932575417673 H 0.0 **** 0.06
31186 C 87.03068610724074 76.94890694094357 86.13541153650681 C 0.0 **** -0.24
31187 H 87.93861319704223 76.51173183085558 85.71806779444574 H 0.0 **** 0.06
31188 H 86.34816528221245 76.1526527477925 86.43334777537035 H 0.0 **** 0.06
31189 H 86.55224080999227 77.57762578026237 85.38514221716724 H 0.0 **** 0.06
31190 H 87.28695988331225 77.5533272101278 87.00665455133424 H 0.0 **** 0.06
31191 C 60.56673741065348 28.22796245671603 38.499843593086496 C 0.0 **** -0.24
31192 H 60.713450736764806 27.86363150713506 39.51705871245548 H 0.0 **** 0.06
31193 H 59.50528684719095 28.404882024987764 38.327113917028385 H 0.0 **** 0.06
31194 H 60.931695297782376 27.483013270449142 37.79231417571515 H 0.0 **** 0.06
31195 H 61.1179910585678 29.158554810976902 38.3652751374492 H 0.0 **** 0.06
31196 C 109.46918451662876 43.13476119747466 94.7329536334351 C 0.0 **** -0.24
31197 H 108.72497577522171 43.479359199706835 95.45062969566567 H 0.0 **** 0.06
31198 H 110.46301982352273 43.20867124114878 95.17613436603665 H 0.0 **** 0.06
31199 H 109.42282593481947 43.752964848521515 93.83683116673032 H 0.0 **** 0.06
31200 H 109.26569175353895 42.09633755519721 94.46835673744732 H 0.0 **** 0.06
31201 C 12.35614003132433 88.09272327860165 89.40661436860469 C 0.0 **** -0.24
31202 H 11.92510253641268 88.89631295958941 90.00435907548535 H 0.0 **** 0.06
31203 H 13.166372035565189 88.49022167827329 88.79476507905534 H 0.0 **** 0.06
31204 H 11.586942784176856 87.66748623845328 88.76210646963969 H 0.0 **** 0.06
31205 H 12.745723249665033 87.31875349719854 90.06773392718486 H 0.0 **** 0.06
31206 C 26.195852371014297 13.48414099056879 21.817721784894786 C 0.0 **** -0.24
31207 H 25.370286521213487 12.786104922512294 21.95763276107374 H 0.0 **** 0.06
31208 H 26.61723146747238 13.747788265034188 22.78794607783948 H 0.0 **** 0.06
31209 H 25.832109535928453 14.384316881683674 21.32256434742007 H 0.0 **** 0.06
31210 H 26.965547741559362 13.016971874492299 21.201757860664344 H 0.0 **** 0.06
31211 C 82.31391111006357 72.63055825737553 84.85411610658656 C 0.0 **** -0.24
31212 H 82.96005359361962 72.6281787232706 85.73265790339468 H 0.0 **** 0.06
31213 H 82.78967612640966 72.06598126515715 84.0517833199778 H 0.0 **** 0.06
31214 H 82.14810145133148 73.65673317714345 84.5278516173504 H 0.0 **** 0.06
31215 H 81.35830721275096 72.1696840731199 85.10559097277047 H 0.0 **** 0.06
31216 C 92.79138785605855 35.528371530393116 51.98663485113815 C 0.0 **** -0.24
31217 H 93.62400304189967 34.84927249229936 52.169768219111575 H 0.0 **** 0.06
31218 H 92.61700243952777 35.607930204904804 50.912574489361816 H 0.0 **** 0.06
31219 H 93.02963656065779 36.51264118441803 52.390158342880795 H 0.0 **** 0.06
31220 H 91.89507791422758 35.14374447150186 52.47181092659639 H 0.0 **** 0.06
31221 C 31.66206405372745 9.276663718696113 64.08366991930987 C 0.0 **** -0.24
31222 H 30.812081826622375 8.594791217704511 64.07194538181963 H 0.0 **** 0.06
31223 H 31.344007057623486 10.259801415700238 63.73770262812027 H 0.0 **** 0.06
31224 H 32.44361981706052 8.89536990130992 63.42596858734907 H 0.0 **** 0.06
31225 H 32.048876427528114 9.355689756727855 65.10000475702896 H 0.0 **** 0.06
31226 C 38.66319070760426 21.283055418436213 8.626397571387912 C 0.0 **** -0.24
31227 H 39.75278722586228 21.28322247019573 8.651790006230527 H 0.0 **** 0.06
31228 H 38.296279377293104 20.266476024811645 8.765677021418256 H 0.0 **** 0.06
31229 H 38.322646310223774 21.66406617876983 7.662957498134219 H 0.0 **** 0.06
31230 H 38.28186485737632 21.920109189544924 9.423898311362095 H 0.0 **** 0.06
31231 C 109.10693064649318 23.739878179207953 32.90381044263495 C 0.0 **** -0.24
31232 H 110.19530290939824 23.775689674709497 32.85967739620416 H 0.0 **** 0.06
31233 H 108.7315844722561 24.658700962392768 33.354096262442084 H 0.0 **** 0.06
31234 H 108.79571836251667 22.885587203212715 33.50592612514484 H 0.0 **** 0.06
31235 H 108.7059999340355 23.63833393511117 31.894659910777406 H 0.0 **** 0.06
31236 C 15.196062347445647 51.75583694095317 24.862451888195864 C 0.0 **** -0.24
31237 H 14.450146480931338 51.17091172951697 24.32423872185646 H 0.0 **** 0.06
31238 H 16.007244293220126 51.102441330988675 25.185486692796616 H 0.0 **** 0.06
31239 H 14.733386247059357 52.21946610556352 25.734036793064064 H 0.0 **** 0.06
31240 H 15.592138512432797 52.53099817787384 24.20606621966482 H 0.0 **** 0.06
31241 C 75.14692325180351 68.58563727749547 52.07337237016225 C 0.0 **** -0.24
31242 H 75.05039076672031 67.52144796889198 51.85741866127108 H 0.0 **** 0.06
31243 H 75.67521243749061 69.07506493913903 51.254699949349316 H 0.0 **** 0.06
31244 H 75.70672996217445 68.71884068771519 52.99915997771339 H 0.0 **** 0.06
31245 H 74.15545285710925 69.02608115817168 52.180274441398836 H 0.0 **** 0.06
31246 C 19.683749380752005 69.90655977961586 88.8012806369264 C 0.0 **** -0.24
31247 H 19.202490848949907 70.69902404659382 89.37327357929738 H 0.0 **** 0.06
31248 H 20.036968291049476 69.13103755071128 89.48074148946759 H 0.0 **** 0.06
31249 H 20.529291400465155 70.31934966853595 88.24903366715921 H 0.0 **** 0.06
31250 H 18.967392349528723 69.47756053361258 88.1000362511376 H 0.0 **** 0.06
31251 C 54.9641667387273 109.16306171016176 61.68061676600443 C 0.0 **** -0.24
31252 H 55.19595872707541 108.7102081032845 62.644320269169434 H 0.0 **** 0.06
31253 H 53.88551039895785 109.1446089062976 61.520190870303686 H 0.0 **** 0.06
31254 H 55.458889360245934 108.60168526648586 60.88805610412209 H 0.0 **** 0.06
31255 H 55.316440764827036 110.19454615583581 61.66916061297663 H 0.0 **** 0.06
31256 C 80.05708141779067 33.06344273693388 48.77467134059779 C 0.0 **** -0.24
31257 H 79.69406252117216 33.199680394736596 47.755392655763075 H 0.0 **** 0.06
31258 H 79.7456911433913 32.08604267169201 49.14266125331092 H 0.0 **** 0.06
31259 H 79.6435351115257 33.84282483825102 49.4137357442127 H 0.0 **** 0.06
31260 H 81.14531841983367 33.12584521541165 48.78282943197782 H 0.0 **** 0.06
31261 C 28.50325200841087 87.02382476075056 76.11887426382344 C 0.0 **** -0.24
31262 H 28.612798197374758 86.57682961179324 77.10712492959044 H 0.0 **** 0.06
31263 H 29.190924267230372 87.8639855438908 76.02224035381477 H 0.0 **** 0.06
31264 H 27.479032296378307 87.37435032365084 75.98991215726232 H 0.0 **** 0.06
31265 H 28.73121875418113 86.27869566790233 75.35619790352092 H 0.0 **** 0.06
31266 C 78.43791709698115 56.31156276234318 2.5660427910963364 C 0.0 **** -0.24
31267 H 78.39005629754723 55.41483414990559 3.1839558403302846 H 0.0 **** 0.06
31268 H 78.11022074007275 56.07364035462128 1.554631722547498 H 0.0 **** 0.06
31269 H 79.46334705893184 56.680182596062735 2.5392435151902646 H 0.0 **** 0.06
31270 H 77.78773283391814 57.07834892845021 2.9881657990140837 H 0.0 **** 0.06
31271 C 86.08157880037675 9.015280344314704 44.86612394255616 C 0.0 **** -0.24
31272 H 86.9791701836507 8.523708266995811 45.24113725223373 H 0.0 **** 0.06
31273 H 86.28220713642375 10.076877297768903 44.71913887195751 H 0.0 **** 0.06
31274 H 85.27304023522933 8.894989658642885 45.587656318571646 H 0.0 **** 0.06
31275 H 85.79104671499556 8.565068363234957 43.91678170541417 H 0.0 **** 0.06
31276 C 65.72649239840834 107.14093974468757 87.8669566407421 C 0.0 **** -0.24
31277 H 66.35981791661675 106.29023975692658 88.11880126551944 H 0.0 **** 0.06
31278 H 64.70352220380173 106.93687163301227 88.18445407791862 H 0.0 **** 0.06
31279 H 65.74771488878395 107.30320000374036 86.78950103585424 H 0.0 **** 0.06
31280 H 66.09422321073444 108.03201637270492 88.37693404362702 H 0.0 **** 0.06
31281 C 97.67169526500913 108.71298414093405 104.15846934820027 C 0.0 **** -0.24
31282 H 97.0178753330317 108.77183080676892 105.02904559320609 H 0.0 **** 0.06
31283 H 97.07295183051093 108.5227945674365 103.26764353858542 H 0.0 **** 0.06
31284 H 98.3875758684319 107.90189582774106 104.29629231432938 H 0.0 **** 0.06
31285 H 98.20754379388632 109.65458806859864 104.04279855618657 H 0.0 **** 0.06
31286 C 90.69983374008527 110.03007875067344 60.88873186088827 C 0.0 **** -0.24
31287 H 91.75926452436181 109.9389697024419 61.13128912266734 H 0.0 **** 0.06
31288 H 90.57967864326179 110.68493865564032 60.02515922338165 H 0.0 **** 0.06
31289 H 90.1669719607425 110.45108764991588 61.741810560486385 H 0.0 **** 0.06
31290 H 90.29513314326158 109.04538252182931 60.65691490850406 H 0.0 **** 0.06
31291 C 50.35105163644638 111.57264139116856 6.433714052327019 C 0.0 **** -0.24
31292 H 50.436034160491026 111.36299236116449 7.500477711475284 H 0.0 **** 0.06
31293 H 51.031571190475866 112.3816962345688 6.167550925081528 H 0.0 **** 0.06
31294 H 49.327509183711165 111.86642011046722 6.2022356113934904 H 0.0 **** 0.06
31295 H 50.60994941120943 110.67800505425612 5.866060774891679 H 0.0 **** 0.06
31296 C 48.66977197848664 25.346453052147965 83.25395883095547 C 0.0 **** -0.24
31297 H 48.36438348054719 25.054107876079016 82.24938054038927 H 0.0 **** 0.06
31298 H 47.79200536685872 25.40568212514067 83.89800317748325 H 0.0 **** 0.06
31299 H 49.159514011940104 26.318587298982735 83.21578767614784 H 0.0 **** 0.06
31300 H 49.363220984554715 24.60572088244649 83.65291089999414 H 0.0 **** 0.06
31301 C 24.33808798841116 26.54050498633154 85.26214154453814 C 0.0 **** -0.24
31302 H 23.847810097723965 25.77366808741428 84.66184729368254 H 0.0 **** 0.06
31303 H 25.24368465939301 26.87416663366639 84.75555891359258 H 0.0 **** 0.06
31304 H 24.596743718003466 26.12751331310824 86.2364994918018 H 0.0 **** 0.06
31305 H 23.66155819943637 27.38520247072023 85.39351511412096 H 0.0 **** 0.06
31306 C 75.67649489628417 2.916785303700692 108.0794226106833 C 0.0 **** -0.24
31307 H 75.66413142607544 3.282490284734024 109.106242658041 H 0.0 **** 0.06
31308 H 74.9101056052491 3.4320905682205307 107.50066159378062 H 0.0 **** 0.06
31309 H 75.47875844050637 1.8452853833746872 108.07297619038707 H 0.0 **** 0.06
31310 H 76.65521938481822 3.107235159882009 107.63776246776337 H 0.0 **** 0.06
31311 C 88.83000723168135 35.04961780369385 49.56572349677157 C 0.0 **** -0.24
31312 H 89.65025490737605 35.65488444808 49.952042595553735 H 0.0 **** 0.06
31313 H 87.94747956540391 35.67484478739007 49.43561028881379 H 0.0 **** 0.06
31314 H 88.60793779821509 34.24732042131879 50.27001002826199 H 0.0 **** 0.06
31315 H 89.11735344056083 34.620526567268456 48.605698877336465 H 0.0 **** 0.06
31316 C 112.66620188555825 89.22435600159162 106.5762069414977 C 0.0 **** -0.24
31317 H 113.64528345293257 89.53138749178311 106.20679198761638 H 0.0 **** 0.06
31318 H 112.2633134610011 88.44403292699329 105.92858564008716 H 0.0 **** 0.06
31319 H 111.99261670677134 90.0811199160838 106.57448291547544 H 0.0 **** 0.06
31320 H 112.76390959033554 88.83999688967933 107.59071104507316 H 0.0 **** 0.06
31321 C 46.413325821400704 111.88748044432832 101.17101060480493 C 0.0 **** -0.24
31322 H 47.352552683155686 111.70672918380751 100.64922979325073 H 0.0 **** 0.06
31323 H 46.448171043195885 112.864842741719 101.65301286428382 H 0.0 **** 0.06
31324 H 46.26141433859548 111.11458292692778 101.92464761059512 H 0.0 **** 0.06
31325 H 45.590230754325646 111.86447197613602 100.45635855873758 H 0.0 **** 0.06
31326 C 40.562233971981925 35.15989105506863 91.65248465536007 C 0.0 **** -0.24
31327 H 41.32832559789432 35.62963627446678 91.03654198476747 H 0.0 **** 0.06
31328 H 40.28865518017409 35.8315544231523 92.46680179894162 H 0.0 **** 0.06
31329 H 40.94745400468565 34.227430462517646 92.06389212305481 H 0.0 **** 0.06
31330 H 39.682757646225866 34.951858475154566 91.04164316294921 H 0.0 **** 0.06
31331 C 14.172204578665944 37.79948800383748 64.21087769889144 C 0.0 **** -0.24
31332 H 13.619774295815311 38.594751970948 64.71216149144627 H 0.0 **** 0.06
31333 H 14.733284884225966 37.22648463479134 64.94961544899795 H 0.0 **** 0.06
31334 H 14.861667704524418 38.23549947931399 63.48798698980207 H 0.0 **** 0.06
31335 H 13.472475085905447 37.14108377638232 63.695582704946304 H 0.0 **** 0.06
31336 C 59.40727856439332 5.485613084504465 29.528823172859553 C 0.0 **** -0.24
31337 H 59.136534333062514 5.259502457349333 28.497230247275816 H 0.0 **** 0.06
31338 H 60.251572282631685 4.864080144336729 29.826887434782996 H 0.0 **** 0.06
31339 H 58.55683202953219 5.280555672143169 30.18024057099747 H 0.0 **** 0.06
31340 H 59.681787783960544 6.536964035519105 29.609719445089077 H 0.0 **** 0.06
31341 C 81.66453408935172 13.82295588310086 18.44431270795162 C 0.0 **** -0.24
31342 H 82.14507598862949 12.938541176217356 18.02656700576036 H 0.0 **** 0.06
31343 H 82.28276796269304 14.227806903979783 19.246000277501473 H 0.0 **** 0.06
31344 H 80.68567276195012 13.551499728394674 18.840770146355887 H 0.0 **** 0.06
31345 H 81.54401456306351 14.573984995766608 17.662635159498024 H 0.0 **** 0.06
31346 C 39.13938941645523 87.86410245130833 54.26093300989291 C 0.0 **** -0.24
31347 H 38.721780467902875 88.19440699423063 53.30914094295901 H 0.0 **** 0.06
31348 H 38.34188031602963 87.7839648786373 54.99907699878153 H 0.0 **** 0.06
31349 H 39.87967347479298 88.58703666085631 54.60212792878912 H 0.0 **** 0.06
31350 H 39.61417910028706 86.89173039640679 54.13065361207483 H 0.0 **** 0.06
31351 C 9.844428889908102 73.44363356631868 98.08742029998274 C 0.0 **** -0.24
31352 H 8.901562606947323 72.95661368593196 98.3364166913461 H 0.0 **** 0.06
31353 H 9.85437424341842 74.45054221444377 98.50745551746454 H 0.0 **** 0.06
31354 H 9.94907511560632 73.5005342982436 97.00396570398848 H 0.0 **** 0.06
31355 H 10.67070035142666 72.8679103694943 98.50276543633467 H 0.0 **** 0.06
31356 C 62.86121145737485 56.13944991978513 23.13860838233603 C 0.0 **** -0.24
31357 H 63.399804824722025 56.90081534363005 23.70236474475422 H 0.0 **** 0.06
31358 H 63.095355810904096 55.15449719294045 23.54347994368908 H 0.0 **** 0.06
31359 H 63.16238439980839 56.18305991884996 22.092072476698036 H 0.0 **** 0.06
31360 H 61.78949900226627 56.32001579185879 23.217422900794475 H 0.0 **** 0.06
31361 C 50.607669232245485 95.13911427051727 56.61560777714987 C 0.0 **** -0.24
31362 H 49.58000492035495 95.4987399670193 56.67157951991858 H 0.0 **** 0.06
31363 H 50.76024414103364 94.3599391030755 57.3636421681106 H 0.0 **** 0.06
31364 H 51.29314699685318 95.96533626546002 56.80559427196347 H 0.0 **** 0.06
31365 H 50.79606402906154 94.73118875712433 55.62301142849895 H 0.0 **** 0.06
31366 C 98.18392999695934 89.92711812260939 92.182982436168 C 0.0 **** -0.24
31367 H 98.72401521292485 89.34249881819676 91.43770687386765 H 0.0 **** 0.06
31368 H 97.20047203998777 90.19123666568089 91.79314878182586 H 0.0 **** 0.06
31369 H 98.74294026313774 90.83616242979645 92.40620293795229 H 0.0 **** 0.06
31370 H 98.06868953726371 89.33839481472222 93.09267790953643 H 0.0 **** 0.06
31371 C 25.244241358939405 80.0511973199944 91.47494802789186 C 0.0 **** -0.24
31372 H 24.947573460956562 79.13108285564181 90.96973023266969 H 0.0 **** 0.06
31373 H 26.234430936842898 80.3512779942549 91.13071317989974 H 0.0 **** 0.06
31374 H 25.269948384596717 79.88190005667073 92.55194665377994 H 0.0 **** 0.06
31375 H 24.525128024930382 80.83721630967031 91.24726957958364 H 0.0 **** 0.06
31376 C 81.93467752145978 91.14040062897294 4.337782713293279 C 0.0 **** -0.24
31377 H 81.57922403740139 91.78993033497727 3.5376824770334565 H 0.0 **** 0.06
31378 H 82.94661286573088 90.80390089891321 4.110458656407957 H 0.0 **** 0.06
31379 H 81.27509170581516 90.27732562768637 4.424173943653159 H 0.0 **** 0.06
31380 H 81.93757602665113 91.69121139222156 5.278206274330444 H 0.0 **** 0.06
31381 C 15.893574835498754 33.635364812881136 11.51140539513095 C 0.0 **** -0.24
31382 H 16.349397348510138 33.927381571793404 12.457130726037633 H 0.0 **** 0.06
31383 H 15.061786588438508 34.30300513811872 11.28699262651439 H 0.0 **** 0.06
31384 H 15.527870042731877 32.6111844119867 11.585181422011004 H 0.0 **** 0.06
31385 H 16.635741407976866 33.698936715189916 10.715395468498428 H 0.0 **** 0.06
31386 C 83.82783351747963 45.89205122498663 27.40597737116741 C 0.0 **** -0.24
31387 H 83.56891286106261 46.909342958683396 27.70014404502558 H 0.0 **** 0.06
31388 H 83.00555305363162 45.22154697149699 27.656657048361723 H 0.0 **** 0.06
31389 H 84.72647843056103 45.5791476639107 27.93765403431354 H 0.0 **** 0.06
31390 H 84.01051340212942 45.860059223914504 26.332175748873794 H 0.0 **** 0.06
31391 C 90.87626907750698 3.1526206258279217 83.08724795250026 C 0.0 **** -0.24
31392 H 90.73429003684467 2.2170359264522403 82.54610691376598 H 0.0 **** 0.06
31393 H 89.93311729813732 3.4554540272729355 83.54290910434662 H 0.0 **** 0.06
31394 H 91.20981799542909 3.9256471854679376 82.39453698858352 H 0.0 **** 0.06
31395 H 91.62709229269836 3.0123594332767425 83.86478745628364 H 0.0 **** 0.06
31396 C 32.91698861158329 74.38988731875634 110.60571914047735 C 0.0 **** -0.24
31397 H 32.46517542985998 75.36413451977407 110.79601288539153 H 0.0 **** 0.06
31398 H 33.27297993527597 73.96595794319012 111.54463684005444 H 0.0 **** 0.06
31399 H 33.75517964455781 74.50666637508732 109.91855333026085 H 0.0 **** 0.06
31400 H 32.17550861056077 73.72565154224498 110.16382828629705 H 0.0 **** 0.06
31401 C 9.862111191817817 58.98911683842698 36.11140128960875 C 0.0 **** -0.24
31402 H 10.077092426489202 59.60243742400223 35.236590285213765 H 0.0 **** 0.06
31403 H 10.007352122639489 59.5812216082285 37.014822226441595 H 0.0 **** 0.06
31404 H 10.534233488759511 58.13002517560798 36.126554873148734 H 0.0 **** 0.06
31405 H 8.830318568772526 58.6410578489228 36.065988784826686 H 0.0 **** 0.06
31406 C 61.73155188000581 25.207663788454482 33.5483249309419 C 0.0 **** -0.24
31407 H 60.92115552018288 24.599558471448802 33.950840866892065 H 0.0 **** 0.06
31408 H 61.33019111662543 25.908242740485804 32.815546586170484 H 0.0 **** 0.06
31409 H 62.46669971049295 24.561144036255442 33.068961526331776 H 0.0 **** 0.06
31410 H 62.20736393313297 25.76077907204268 34.3572450026912 H 0.0 **** 0.06
31411 C 93.37915921863063 58.48750852311533 88.87900381353444 C 0.0 **** -0.24
31412 H 92.29080898472728 58.4981932446536 88.94977867774054 H 0.0 **** 0.06
31413 H 93.80124944255735 58.168301102823385 89.83241028950926 H 0.0 **** 0.06
31414 H 93.73722937272208 59.48809505053368 88.63883783574596 H 0.0 **** 0.06
31415 H 93.68478359950026 57.79357499956365 88.0959492856405 H 0.0 **** 0.06
31416 C 92.86533610741347 69.25745289642163 4.040775682938829 C 0.0 **** -0.24
31417 H 91.92891597311319 69.34071659791988 4.592338801810428 H 0.0 **** 0.06
31418 H 93.48731841293005 68.48717723191663 4.496704185491581 H 0.0 **** 0.06
31419 H 93.39006472354603 70.21260126069524 4.070133722331832 H 0.0 **** 0.06
31420 H 92.65460024724459 68.98940387432603 3.0055976815473855 H 0.0 **** 0.06
31421 C 95.03099343827512 57.75042522912705 84.86442592076668 C 0.0 **** -0.24
31422 H 94.60450518093947 57.528034879592 85.84309734047892 H 0.0 **** 0.06
31423 H 94.94045113504333 56.87558860764812 84.22057860558479 H 0.0 **** 0.06
31424 H 96.08362409118823 58.01128421946549 84.97859571866306 H 0.0 **** 0.06
31425 H 94.49549065025147 58.587917112657 84.4173627326796 H 0.0 **** 0.06
31426 C 6.579504761903953 3.6334194607889003 26.50617920037616 C 0.0 **** -0.24
31427 H 6.401553268736384 3.519575455730603 27.57602790965268 H 0.0 **** 0.06
31428 H 7.626466047654796 3.419463142798236 26.288137401355193 H 0.0 **** 0.06
31429 H 6.34667753774654 4.654865296147307 26.20628547846524 H 0.0 **** 0.06
31430 H 5.943878512313034 2.9387743910604627 25.956432053273694 H 0.0 **** 0.06
31431 C 2.028451503624524 52.88209523239274 74.87962505213594 C 0.0 **** -0.24
31432 H 1.1581205450684138 53.52511471815231 74.7485588296243 H 0.0 **** 0.06
31433 H 2.0257466408179994 52.1070900513694 74.11331112818726 H 0.0 **** 0.06
31434 H 1.991222265299939 52.41826526418819 75.8664579976529 H 0.0 **** 0.06
31435 H 2.9370220603902055 53.47754205067682 74.79299948441724 H 0.0 **** 0.06
31436 C 99.64495061190044 75.91598885245128 83.80714958475761 C 0.0 **** -0.24
31437 H 98.9078824001526 75.50622335249051 83.11486119933625 H 0.0 **** 0.06
31438 H 100.60442701419959 76.01363056179619 83.29933907488373 H 0.0 **** 0.06
31439 H 99.75059154441507 75.24731529102928 84.66161027285023 H 0.0 **** 0.06
31440 H 99.31292690697848 76.89549011899629 84.15155331263122 H 0.0 **** 0.06
31441 C 103.9335249554486 35.484566724441635 73.40774849799581 C 0.0 **** -0.24
31442 H 103.0515960483938 35.583680087100376 72.77431785719077 H 0.0 **** 0.06
31443 H 104.7675452423689 35.11070159919319 72.811834449159 H 0.0 **** 0.06
31444 H 103.72272397807171 34.78659550508283 74.21779880287187 H 0.0 **** 0.06
31445 H 104.19225850281961 36.458484384315 73.82394888938427 H 0.0 **** 0.06
31446 C 62.48445586136853 71.99910920321344 9.056868634890122 C 0.0 **** -0.24
31447 H 62.381588270476925 71.93292255222804 7.9740801350183546 H 0.0 **** 0.06
31448 H 62.92705730499131 72.95974800201122 9.3220336834288 H 0.0 **** 0.06
31449 H 63.12602310375718 71.19302085907 9.411691687043728 H 0.0 **** 0.06
31450 H 61.50134763615986 71.91132917078687 9.520849616805577 H 0.0 **** 0.06
31451 C 63.833043506147845 23.404830659761505 77.21910367070802 C 0.0 **** -0.24
31452 H 63.39302748346057 22.602443447036464 77.81199328845261 H 0.0 **** 0.06
31453 H 63.03926382487958 24.02850384034665 76.80713521423829 H 0.0 **** 0.06
31454 H 64.41941027081575 22.97577863739739 76.40657381286331 H 0.0 **** 0.06
31455 H 64.47940739839598 24.011088084975693 77.85327952128685 H 0.0 **** 0.06
31456 C 112.44414026868444 99.45715901693075 109.53149717571361 C 0.0 **** -0.24
31457 H 112.26288707164689 100.04414919731678 110.43268876403913 H 0.0 **** 0.06
31458 H 111.95949268491502 98.48601479619921 109.6270636815945 H 0.0 **** 0.06
31459 H 113.51672000771178 99.31733172467409 109.39924595431906 H 0.0 **** 0.06
31460 H 112.03744700907394 99.98409853267026 108.6674897611168 H 0.0 **** 0.06
31461 C 29.554209322322976 104.1930668609833 71.4150855916742 C 0.0 **** -0.24
31462 H 28.50840464894054 104.4120562745 71.63377644715729 H 0.0 **** 0.06
31463 H 30.170232183817703 104.47644245855938 72.26848613839903 H 0.0 **** 0.06
31464 H 29.867378997658676 104.75730620044487 70.53694831223135 H 0.0 **** 0.06
31465 H 29.66862819072759 103.12669167553958 71.22219795778773 H 0.0 **** 0.06
31466 C 79.26991371752123 60.00160816786189 28.320897704994877 C 0.0 **** -0.24
31467 H 80.32444456341892 59.73152341728729 28.25825301005878 H 0.0 **** 0.06
31468 H 78.6730601572659 59.259910056785344 27.78992393954121 H 0.0 **** 0.06
31469 H 79.11867630799478 60.98174701604131 27.869293409966303 H 0.0 **** 0.06
31470 H 78.96495885922315 60.03206438087858 29.367296953413188 H 0.0 **** 0.06
31471 C 73.4519170365372 34.81593862337519 110.60541206772879 C 0.0 **** -0.24
31472 H 72.69986909748411 35.59807014104882 110.71149035010072 H 0.0 **** 0.06
31473 H 73.18948413181786 34.17189839853083 109.76549087673199 H 0.0 **** 0.06
31474 H 73.49301100247695 34.223624406168796 111.51987561622805 H 0.0 **** 0.06
31475 H 74.42565832182586 35.27222596609823 110.42400857674016 H 0.0 **** 0.06
31476 C 41.24328326760576 16.20404946512329 51.39496369861678 C 0.0 **** -0.24
31477 H 40.79936781788888 15.592572774652865 50.609260363316594 H 0.0 **** 0.06
31478 H 41.27072552983043 15.636479403593682 52.324842995449956 H 0.0 **** 0.06
31479 H 40.645981250656746 17.104893743884077 51.53484315284618 H 0.0 **** 0.06
31480 H 42.25771966674503 16.481180387885814 51.107384734177685 H 0.0 **** 0.06
31481 C 74.91378349743957 19.710151737549353 46.2503728506875 C 0.0 **** -0.24
31482 H 75.3596041383089 19.39769223535521 45.30555251835858 H 0.0 **** 0.06
31483 H 75.3701625236163 20.646362675622527 46.57445733054094 H 0.0 **** 0.06
31484 H 75.08469092118878 18.942170082899736 47.00404596245717 H 0.0 **** 0.06
31485 H 73.84178725240497 19.856013665061283 46.116384957347954 H 0.0 **** 0.06
31486 C 102.03306157152181 107.22232247211134 102.84054125711623 C 0.0 **** -0.24
31487 H 101.78616645218054 107.07954957562055 103.89298324567869 H 0.0 **** 0.06
31488 H 101.11340920853624 107.29498925333013 102.25878827014185 H 0.0 **** 0.06
31489 H 102.62021672451647 106.37489834596802 102.48788346564822 H 0.0 **** 0.06
31490 H 102.61107226255953 108.13889315255838 102.7242906813533 H 0.0 **** 0.06
31491 C 50.58354892631124 79.46220442257501 105.73263655406677 C 0.0 **** -0.24
31492 H 51.10023362030216 80.42129906466099 105.71467186369983 H 0.0 **** 0.06
31493 H 49.89739904412499 79.40324448848392 104.88732034297396 H 0.0 **** 0.06
31494 H 50.023062577201664 79.3692253250612 106.66323763381627 H 0.0 **** 0.06
31495 H 51.3135004636163 78.65504881209392 105.66531637577708 H 0.0 **** 0.06
31496 C 94.32182596323128 111.86491013205168 24.14608945825293 C 0.0 **** -0.24
31497 H 94.665031114752 111.368514782715 25.053888049255704 H 0.0 **** 0.06
31498 H 94.68510980521239 112.89280623841866 24.135751878024323 H 0.0 **** 0.06
31499 H 93.23270153203444 111.86380675059294 24.122004811075882 H 0.0 **** 0.06
31500 H 94.70537625190579 111.33430908113678 23.274743328055663 H 0.0 **** 0.06
31501 C 73.98313309398549 42.84197659106931 92.7568780900703 C 0.0 **** -0.24
31502 H 73.64624671202733 41.80522806522703 92.73864400539168 H 0.0 **** 0.06
31503 H 73.76512296879633 43.31133775991424 91.79722393062372 H 0.0 **** 0.06
31504 H 75.05688657582493 42.87101451036793 92.9404063261577 H 0.0 **** 0.06
31505 H 73.46320841043428 43.378252435552895 93.55048939969632 H 0.0 **** 0.06
31506 C 71.0190861877067 50.934025455939974 10.020272670702923 C 0.0 **** -0.24
31507 H 70.99044970759161 49.85721613789439 9.856284912591775 H 0.0 **** 0.06
31508 H 72.03334735154607 51.29922312037566 9.856323298708276 H 0.0 **** 0.06
31509 H 70.71441484755013 51.15368159874553 11.04347936475068 H 0.0 **** 0.06
31510 H 70.33846842996792 51.424818677804105 9.324270590537651 H 0.0 **** 0.06
31511 C 104.96517590370615 69.95526883376522 51.936406183016196 C 0.0 **** -0.24
31512 H 105.71936804471252 69.16907039709633 51.90379306861377 H 0.0 **** 0.06
31513 H 104.23616345008074 69.72684359671138 52.71457596183427 H 0.0 **** 0.06
31514 H 104.46005708715364 70.01377610092632 50.97183927551281 H 0.0 **** 0.06
31515 H 105.44424356551997 70.90969468029965 52.15479773528131 H 0.0 **** 0.06
31516 C 37.687824870162444 101.42295322034951 17.487918228030935 C 0.0 **** -0.24
31517 H 38.10011803482229 102.11428384246844 16.752970811385154 H 0.0 **** 0.06
31518 H 37.280378171231746 101.9863451745835 18.327468162514492 H 0.0 **** 0.06
31519 H 38.47425991824173 100.75817252342563 17.843444396791483 H 0.0 **** 0.06
31520 H 36.89498310258978 100.83431117507007 17.026419731329923 H 0.0 **** 0.06
31521 C 71.13759578096744 6.072985180578689 83.36528657161568 C 0.0 **** -0.24
31522 H 71.85696716784537 6.25696196247341 84.16337788966172 H 0.0 **** 0.06
31523 H 70.94040367740587 5.002998140535022 83.29407253289412 H 0.0 **** 0.06
31524 H 71.54356990350999 6.431986863969064 82.41991777897212 H 0.0 **** 0.06
31525 H 70.20880878421139 6.59966423468968 83.58669192934224 H 0.0 **** 0.06
31526 C 98.93911926628218 76.68606776621252 69.78295982865856 C 0.0 **** -0.24
31527 H 97.9528875505554 76.72216770532901 70.24556136206007 H 0.0 **** 0.06
31528 H 99.60260623799843 76.0708257443527 70.39094889008982 H 0.0 **** 0.06
31529 H 99.34393730471515 77.69583390551054 69.71264546976701 H 0.0 **** 0.06
31530 H 98.85661774060154 76.25667201330458 68.78450243074161 H 0.0 **** 0.06
31531 C 19.826351410180905 14.659844843663592 27.270890979128694 C 0.0 **** -0.24
31532 H 20.50457975638409 13.990590524408105 27.801027191568267 H 0.0 **** 0.06
31533 H 18.830225126221706 14.217929044876428 27.241990125582674 H 0.0 **** 0.06
31534 H 20.18744266782454 14.81120011161974 26.254130427570203 H 0.0 **** 0.06
31535 H 19.784250760279463 15.618089886296247 27.789125858273565 H 0.0 **** 0.06
31536 C 37.39750665037417 18.6041493514562 15.812621676543898 C 0.0 **** -0.24
31537 H 36.649605264536945 19.11338381122505 16.41954927628933 H 0.0 **** 0.06
31538 H 37.73835288767941 17.708208700841013 16.333148026477915 H 0.0 **** 0.06
31539 H 38.243447059930816 19.27043986119655 15.644520059708725 H 0.0 **** 0.06
31540 H 36.959240671942666 18.32374412924821 14.855904312505658 H 0.0 **** 0.06
31541 C 4.713392761324442 105.85189277246792 17.574846247749974 C 0.0 **** -0.24
31542 H 5.479370293080606 105.80621979264123 16.80095880944691 H 0.0 **** 0.06
31543 H 4.199727468256327 106.81269412149248 17.520465839340602 H 0.0 **** 0.06
31544 H 5.179107808578678 105.74387452023421 18.554403770827832 H 0.0 **** 0.06
31545 H 3.9949672058611725 105.04630990337245 17.42197253257342 H 0.0 **** 0.06
31546 C 25.053575082966947 22.06503772097526 28.823690596100192 C 0.0 **** -0.24
31547 H 24.388193606844318 22.855707310609116 28.477867742744706 H 0.0 **** 0.06
31548 H 25.75412951942929 21.806508925715736 28.02858882299924 H 0.0 **** 0.06
31549 H 24.466207196101657 21.186707323072806 29.091107985599194 H 0.0 **** 0.06
31550 H 25.60669504914635 22.412296619838298 29.69716585536443 H 0.0 **** 0.06
31551 C 23.13136963914704 101.12340615753533 87.7679418815743 C 0.0 **** -0.24
31552 H 24.051109288395338 101.69950424888424 87.65932124878381 H 0.0 **** 0.06
31553 H 22.649806757130932 101.38289777785315 88.71060442199317 H 0.0 **** 0.06
31554 H 23.367450658357285 100.05939214321438 87.76099145782871 H 0.0 **** 0.06
31555 H 22.459542050143284 101.3519832343938 86.9405836753763 H 0.0 **** 0.06
31556 C 70.73768744076199 106.50772863532953 112.01781031912637 C 0.0 **** -0.24
31557 H 69.8907305418117 106.56015399128438 111.33315564361075 H 0.0 **** 0.06
31558 H 71.12970657428781 105.49113551857832 112.03468589966593 H 0.0 **** 0.06
31559 H 70.4114791309807 106.78936740636809 113.01981442296764 H 0.0 **** 0.06
31560 H 71.51681126354384 107.19318568550005 111.68300419516 H 0.0 **** 0.06
31561 C 84.53716283069008 2.189878665129953 48.306505531483566 C 0.0 **** -0.24
31562 H 84.50032153127617 1.7874839690512232 47.293828556274974 H 0.0 **** 0.06
31563 H 85.56352788443255 2.4660114531988597 48.55057296935311 H 0.0 **** 0.06
31564 H 84.18615048493834 1.4342938579883509 49.009647299616944 H 0.0 **** 0.06
31565 H 83.89857432272288 3.0708456438466953 48.37017876833124 H 0.0 **** 0.06
31566 C 89.84098123968056 79.47486617025353 12.783111856091224 C 0.0 **** -0.24
31567 H 89.44517167063515 78.49836686454685 13.06175188686504 H 0.0 **** 0.06
31568 H 90.22593710986285 79.4327935664748 11.763520102197234 H 0.0 **** 0.06
31569 H 90.6469892833955 79.74815624510714 13.464657159070015 H 0.0 **** 0.06
31570 H 89.0478929184275 80.21973219950718 12.841770656011391 H 0.0 **** 0.06
31571 C 61.033195581655924 37.30659441788585 50.527147030739265 C 0.0 **** -0.24
31572 H 61.016640312591086 37.05326469554685 49.46704591587726 H 0.0 **** 0.06
31573 H 61.27890949926981 38.36222485680112 50.644741515071665 H 0.0 **** 0.06
31574 H 61.78209106982725 36.699028150684796 51.03396366138032 H 0.0 **** 0.06
31575 H 60.052160751396876 37.111303291811076 50.96149308083693 H 0.0 **** 0.06
31576 C 108.2936954130494 47.669407725097045 19.92123550938237 C 0.0 **** -0.24
31577 H 107.61859695116854 47.60265335938513 20.77486971480687 H 0.0 **** 0.06
31578 H 107.76794711572684 47.36169408086698 19.017405090895352 H 0.0 **** 0.06
31579 H 109.15023385014254 47.01491280971163 20.083875363841543 H 0.0 **** 0.06
31580 H 108.63774184309526 48.69727231267464 19.809643443103482 H 0.0 **** 0.06
31581 C 55.15106496182625 33.556185058487095 64.8342888416185 C 0.0 **** -0.24
31582 H 55.58117750024664 32.673937227842295 64.35896744867728 H 0.0 **** 0.06
31583 H 55.84140412286146 33.93328645515266 65.58984086223555 H 0.0 **** 0.06
31584 H 54.206027959018826 33.28946951229808 65.30698879543203 H 0.0 **** 0.06
31585 H 54.97745334506095 34.32553166364495 64.08346125457143 H 0.0 **** 0.06
31586 C 95.43289874741316 73.08735379274955 112.50347314720352 C 0.0 **** -0.24
31587 H 96.23245367414205 72.4738873520418 112.087398308319 H 0.0 **** 0.06
31588 H 95.37610539230712 74.02937365396701 111.95805084645696 H 0.0 **** 0.06
31589 H 95.63953184173346 73.28762865546972 113.55529118830651 H 0.0 **** 0.06
31590 H 94.48452614114746 72.55691798781996 112.41432337835471 H 0.0 **** 0.06
31591 C 69.4504830569727 6.449562106452618 104.10228489500582 C 0.0 **** -0.24
31592 H 70.17071541406219 5.654036100829558 103.91425816677221 H 0.0 **** 0.06
31593 H 69.70859267751115 6.962138931696984 105.02862218512306 H 0.0 **** 0.06
31594 H 68.4515688209319 6.02189883423506 104.189737051643 H 0.0 **** 0.06
31595 H 69.470255192378 7.160688209852651 103.27547523834357 H 0.0 **** 0.06
31596 C 47.567996551261444 16.70985725880679 90.80980701055984 C 0.0 **** -0.24
31597 H 47.802911566785895 15.678029777306381 90.54966985286723 H 0.0 **** 0.06
31598 H 47.68435483194935 16.848045504669546 91.88500242614893 H 0.0 **** 0.06
31599 H 46.54049233987922 16.93257900539683 90.52288108657424 H 0.0 **** 0.06
31600 H 48.24637804026477 17.381254607825618 90.28205553123024 H 0.0 **** 0.06
31601 C 12.114678470199976 18.3491981405721 111.78902093008156 C 0.0 **** -0.24
31602 H 11.101580155286001 18.040906577065726 112.04405114847091 H 0.0 **** 0.06
31603 H 12.402857113462233 19.200248959199797 112.40667941582629 H 0.0 **** 0.06
31604 H 12.153467500680733 18.63367215559819 110.73688528754721 H 0.0 **** 0.06
31605 H 12.801542955212426 17.52212003034211 111.96726890556988 H 0.0 **** 0.06
31606 C 57.264897804095824 25.576701582084752 35.294578945281614 C 0.0 **** -0.24
31607 H 56.26070616986851 25.15332488273674 35.260391777330796 H 0.0 **** 0.06
31608 H 57.54020368292197 25.7741597159268 36.331178394108065 H 0.0 **** 0.06
31609 H 57.28470035881975 26.50861914041471 34.72885997064279 H 0.0 **** 0.06
31610 H 57.97085894722562 24.87034335030131 34.85823816036108 H 0.0 **** 0.06
31611 C 29.07251962382375 4.20942165767482 24.637234638417254 C 0.0 **** -0.24
31612 H 30.16207508095289 4.249735231596647 24.621834578825684 H 0.0 **** 0.06
31613 H 28.697869274754908 4.820121670753823 25.458961494002693 H 0.0 **** 0.06
31614 H 28.749388402631638 3.177752358010766 24.77338901340761 H 0.0 **** 0.06
31615 H 28.6827180540551 4.591264825811415 23.69311018761914 H 0.0 **** 0.06
31616 C 67.13370629527722 18.567373253088665 59.73516614090602 C 0.0 **** -0.24
31617 H 68.17531576729886 18.251176699229553 59.78572108011599 H 0.0 **** 0.06
31618 H 66.85473969670826 19.048570993351543 60.67323267995522 H 0.0 **** 0.06
31619 H 66.49815613492802 17.69662739114596 59.5698177074936 H 0.0 **** 0.06
31620 H 67.00765578548024 19.271692578044387 58.91359089708544 H 0.0 **** 0.06
31621 C 31.396772143147473 51.79944529603035 12.031143552851916 C 0.0 **** -0.24
31622 H 31.094313566912263 52.695616987890524 12.572662235450679 H 0.0 **** 0.06
31623 H 30.835020984341213 51.731573371110784 11.098931941282899 H 0.0 **** 0.06
31624 H 31.193705071765237 50.92056985441806 12.643468744720707 H 0.0 **** 0.06
31625 H 32.46274541412623 51.85030598903717 11.811565529529105 H 0.0 **** 0.06
31626 C 76.35843495592698 88.61239386016175 69.56823018913514 C 0.0 **** -0.24
31627 H 76.51473334810163 88.25548280204876 68.55022051232763 H 0.0 **** 0.06
31628 H 77.29517044479567 88.54975978281507 70.12235111949133 H 0.0 **** 0.06
31629 H 75.60443411622336 87.99629633647305 70.05814341111233 H 0.0 **** 0.06
31630 H 76.0199624607678 89.6488020206464 69.54115694808198 H 0.0 **** 0.06
31631 C 9.616051876053547 27.24324011391502 109.04851789050853 C 0.0 **** -0.24
31632 H 10.580015551853847 27.428748072563337 109.52304635036361 H 0.0 **** 0.06
31633 H 9.40926213386038 26.17312554233837 109.05322810346141 H 0.0 **** 0.06
31634 H 9.64277376910951 27.604397761873088 108.02104116920147 H 0.0 **** 0.06
31635 H 8.834049151460448 27.767232542261468 109.59781475708871 H 0.0 **** 0.06
31636 C 110.65645137718383 77.97455422980087 102.52684504082836 C 0.0 **** -0.24
31637 H 110.48432255842273 78.94971780941336 102.07034191760502 H 0.0 **** 0.06
31638 H 110.39434532326172 78.01746908155616 103.58394064457207 H 0.0 **** 0.06
31639 H 111.70828037860441 77.705798308054 102.4218760905986 H 0.0 **** 0.06
31640 H 110.03932664164321 77.22718724626463 102.02858404741599 H 0.0 **** 0.06
31641 C 94.43443996077286 88.87466936392497 6.162018344385098 C 0.0 **** -0.24
31642 H 94.62222084318151 89.9193985714908 6.406796876241797 H 0.0 **** 0.06
31643 H 95.28890541476972 88.46945133193245 5.618320241302692 H 0.0 **** 0.06
31644 H 93.54184466860875 88.80218248316598 5.540889800512339 H 0.0 **** 0.06
31645 H 94.28560608380207 88.30795234676984 7.080267002624684 H 0.0 **** 0.06
31646 C 99.36495150100026 20.340431953298236 43.6383787311953 C 0.0 **** -0.24
31647 H 99.95469975925681 19.658797903367457 43.02516308892979 H 0.0 **** 0.06
31648 H 99.75694919022001 20.344966284120687 44.6559924617456 H 0.0 **** 0.06
31649 H 98.3255223108205 20.011707615405925 43.64989769420123 H 0.0 **** 0.06
31650 H 99.4231561439264 21.346280142374866 43.2211472701901 H 0.0 **** 0.06
31651 C 23.24637767335571 109.17870290862922 26.91562235272896 C 0.0 **** -0.24
31652 H 24.08267757251025 109.68388134453392 26.432338150733926 H 0.0 **** 0.06
31653 H 22.4063279780421 109.12336101723906 26.22154504467396 H 0.0 **** 0.06
31654 H 22.949074053501022 109.7363496816541 27.803196557898076 H 0.0 **** 0.06
31655 H 23.547526250902933 108.17120446176835 27.20241112031644 H 0.0 **** 0.06
31656 C 66.04058094091945 1.0740943141333616 95.50023217559058 C 0.0 **** -0.24
31657 H 65.1243249977781 0.7837780152028131 94.98729181292029 H 0.0 **** 0.06
31658 H 66.9023869551718 0.7400543807389681 94.92109817006423 H 0.0 **** 0.06
31659 H 66.06501241272352 0.6125629721443886 96.48813064984637 H 0.0 **** 0.06
31660 H 66.07086298148116 2.158517333211563 95.60529450728035 H 0.0 **** 0.06
31661 C 68.55647882515399 105.86290684479474 106.6853625173913 C 0.0 **** -0.24
31662 H 69.24671137938492 106.27124350953841 105.94569184601536 H 0.0 **** 0.06
31663 H 69.00706881333804 104.98950103606785 107.15820225955005 H 0.0 **** 0.06
31664 H 67.62836179833516 105.57262041427475 106.19410912065712 H 0.0 **** 0.06
31665 H 68.34704134213524 106.61916448594161 107.44186348205261 H 0.0 **** 0.06
31666 C 51.8321324400778 27.327416298633395 100.76941568188064 C 0.0 **** -0.24
31667 H 52.907471801015134 27.164516662080175 100.68870985321388 H 0.0 **** 0.06
31668 H 51.646045407774615 28.258248826057724 101.3062470128998 H 0.0 **** 0.06
31669 H 51.378688390920416 26.4979783424439 101.31152501075528 H 0.0 **** 0.06
31670 H 51.39967789673977 27.389789081652893 99.77116668778385 H 0.0 **** 0.06
31671 C 10.753048027598538 91.8527519842743 95.72465959519212 C 0.0 **** -0.24
31672 H 11.553878377792927 92.30433913835094 95.13774284250826 H 0.0 **** 0.06
31673 H 9.80095842865353 92.00271539446467 95.21586813932146 H 0.0 **** 0.06
31674 H 10.717630361780095 92.31943694039617 96.70988252517137 H 0.0 **** 0.06
31675 H 10.942691739495046 90.78471761449006 95.83474717719275 H 0.0 **** 0.06
31676 C 17.83038161462926 5.81341932595052 7.273079508836432 C 0.0 **** -0.24
31677 H 17.518876480448597 6.676587142385159 6.685454439802015 H 0.0 **** 0.06
31678 H 18.346897488186812 6.153526266189516 8.171161388667016 H 0.0 **** 0.06
31679 H 18.501870580158766 5.193233087676475 6.680072816876617 H 0.0 **** 0.06
31680 H 16.95318256539727 5.2311213055700705 7.556570742135847 H 0.0 **** 0.06
31681 C 105.60814909000158 9.626984565568819 46.28770363391315 C 0.0 **** -0.24
31682 H 106.02014994203066 9.229810017715494 45.359405120424135 H 0.0 **** 0.06
31683 H 105.99069324327482 9.049737516176322 47.13002617240944 H 0.0 **** 0.06
31684 H 104.52028794711845 9.554383900206773 46.26104389230899 H 0.0 **** 0.06
31685 H 105.90070376564304 10.670683104779357 46.39762381810503 H 0.0 **** 0.06
31686 C 57.44882001181327 48.14987213928762 39.55456532864349 C 0.0 **** -0.24
31687 H 58.11952717830815 48.09774626755444 40.41154380923149 H 0.0 **** 0.06
31688 H 57.76791319538842 47.43101254654849 38.798718176832324 H 0.0 **** 0.06
31689 H 57.47455937577109 49.15506083091552 39.13381650960457 H 0.0 **** 0.06
31690 H 56.43321848426609 47.91532923707402 39.87281135494641 H 0.0 **** 0.06
31691 C 79.61376126865909 77.2427700865693 73.88847981183568 C 0.0 **** -0.24
31692 H 80.01243381901133 78.08678447200998 73.32584912449559 H 0.0 **** 0.06
31693 H 78.89727093619544 76.70021875843906 73.27052258517045 H 0.0 **** 0.06
31694 H 79.11503934612549 77.60835985297115 74.78573391132974 H 0.0 **** 0.06
31695 H 80.42828158032447 76.57591833110314 74.17087452721952 H 0.0 **** 0.06
31696 C 60.38825622250109 78.92648429406933 23.184134495194755 C 0.0 **** -0.24
31697 H 61.43550750467828 79.15294200772286 22.98392199394152 H 0.0 **** 0.06
31698 H 59.85045537884175 79.84988641583612 23.399123250365847 H 0.0 **** 0.06
31699 H 60.318992445447684 78.25750757513097 24.042607055310256 H 0.0 **** 0.06
31700 H 59.9475781787063 78.4434723473712 22.31136203075286 H 0.0 **** 0.06
31701 C 12.653318069139232 6.39943148410741 27.75061126394457 C 0.0 **** -0.24
31702 H 12.55006714328077 5.90542492793476 28.716210611902667 H 0.0 **** 0.06
31703 H 12.320913010279938 7.435472450605388 27.83524310610496 H 0.0 **** 0.06
31704 H 12.04294566234367 5.881187714834965 27.011308019309936 H 0.0 **** 0.06
31705 H 13.697906461297592 6.377612416169626 27.439882420575287 H 0.0 **** 0.06
31706 C 6.946854324347312 90.44736047486003 45.603152984955614 C 0.0 **** -0.24
31707 H 6.636426473829172 90.32923107211832 46.641280809159866 H 0.0 **** 0.06
31708 H 7.063566938949878 89.46478855123112 45.144430793207505 H 0.0 **** 0.06
31709 H 7.896721448383188 90.98106618000537 45.566450456239124 H 0.0 **** 0.06
31710 H 6.190702436226923 91.01435609608541 45.06044988121579 H 0.0 **** 0.06
31711 C 67.24375453800951 82.91277368269945 26.598763487575077 C 0.0 **** -0.24
31712 H 67.76298734105035 81.98534973501526 26.358479342347103 H 0.0 **** 0.06
31713 H 67.37430592063731 83.13792517510325 27.65686531966589 H 0.0 **** 0.06
31714 H 66.18231941539653 82.80277726062366 26.37734163107711 H 0.0 **** 0.06
31715 H 67.65759510183301 83.72597445543522 26.000838749455816 H 0.0 **** 0.06
31716 C 38.03266512437936 91.86087520905 37.36481394694363 C 0.0 **** -0.24
31717 H 37.595865269107435 92.24468974369819 38.28646499137366 H 0.0 **** 0.06
31718 H 37.2949457652488 91.25410639378538 36.838399450990124 H 0.0 **** 0.06
31719 H 38.90345344608639 91.24896655731106 37.60243118275861 H 0.0 **** 0.06
31720 H 38.336514419864784 92.69437644428453 36.73159701643161 H 0.0 **** 0.06
31721 C 49.82163037919382 56.92130823870468 18.94529236133141 C 0.0 **** -0.24
31722 H 49.97801612017392 57.62651911348459 19.762392469759476 H 0.0 **** 0.06
31723 H 50.684637966594025 56.25906537388934 18.867236242516157 H 0.0 **** 0.06
31724 H 49.6975338046137 57.46940703524109 18.011383836285148 H 0.0 **** 0.06
31725 H 48.92682797060527 56.33040583497615 19.142331495154792 H 0.0 **** 0.06
31726 C 55.792732499074766 9.684383085512593 36.118893013846474 C 0.0 **** -0.24
31727 H 55.0919581988065 9.423293382902244 36.91210481152336 H 0.0 **** 0.06
31728 H 55.24746358937297 10.126047816343828 35.285085815503464 H 0.0 **** 0.06
31729 H 56.309706017684945 8.786238182072168 35.78136895726874 H 0.0 **** 0.06
31730 H 56.52058672565342 10.401659829983572 36.49911890411147 H 0.0 **** 0.06
31731 C 72.76069950857891 32.99223776667246 38.72805908037728 C 0.0 **** -0.24
31732 H 72.2941727735566 33.55750922903077 37.920334836683196 H 0.0 **** 0.06
31733 H 73.81870887762938 32.85016274210954 38.506270240800376 H 0.0 **** 0.06
31734 H 72.27497566501191 32.021321013910736 38.819854156802506 H 0.0 **** 0.06
31735 H 72.6559486342548 33.54252944540772 39.66271552590052 H 0.0 **** 0.06
31736 C 19.34575016073211 12.984636730067209 82.81763963852498 C 0.0 **** -0.24
31737 H 19.191874301920024 11.910639288672627 82.9270752982622 H 0.0 **** 0.06
31738 H 18.60703325272354 13.388016493244905 82.12476410250534 H 0.0 **** 0.06
31739 H 20.347769667151084 13.170012703397873 82.42937026427694 H 0.0 **** 0.06
31740 H 19.236910106027665 13.468367839438102 83.78751197796191 H 0.0 **** 0.06
31741 C 49.89009862224964 38.19356689875946 100.39338183586258 C 0.0 **** -0.24
31742 H 49.20420707948817 38.42749853913449 101.20784987889314 H 0.0 **** 0.06
31743 H 49.360689182028715 37.632268350990984 99.62365074103002 H 0.0 **** 0.06
31744 H 50.717724136181204 37.59591488390143 100.7760102368934 H 0.0 **** 0.06
31745 H 50.276743901276674 39.11916865348138 99.96791366834503 H 0.0 **** 0.06
31746 C 42.65806319481442 36.872256660634065 49.547513636332134 C 0.0 **** -0.24
31747 H 43.17108576110326 37.75476647519602 49.16707495976262 H 0.0 **** 0.06
31748 H 42.3315365656203 37.055522853661785 50.571450296392165 H 0.0 **** 0.06
31749 H 43.337865160332626 36.020770029349194 49.530159738859034 H 0.0 **** 0.06
31750 H 41.791500449503815 36.658005159954 48.92233312724783 H 0.0 **** 0.06
31751 C 37.70970769861919 39.05226222931361 37.10479373729788 C 0.0 **** -0.24
31752 H 38.12573551963597 40.03380010235503 37.3347626877503 H 0.0 **** 0.06
31753 H 37.23634407719436 38.64124910452125 37.996987962030346 H 0.0 **** 0.06
31754 H 38.51001144648792 38.38650256557514 36.77868565321853 H 0.0 **** 0.06
31755 H 36.97020192138363 39.14832134424955 36.31082072133631 H 0.0 **** 0.06
31756 C 47.918515664908256 27.418888647622282 100.44004480148317 C 0.0 **** -0.24
31757 H 48.65347848525002 28.047699784116162 99.9379058016072 H 0.0 **** 0.06
31758 H 48.13599546219322 26.370306772572917 100.23440668280611 H 0.0 **** 0.06
31759 H 46.92088984607577 27.662483620634305 100.0743090786699 H 0.0 **** 0.06
31760 H 47.96490563449663 27.595909959196433 101.51523961954328 H 0.0 **** 0.06
31761 C 109.8139583410369 67.24881489254244 48.63016106313893 C 0.0 **** -0.24
31762 H 110.67836551666305 66.73709475012757 48.20442611584633 H 0.0 **** 0.06
31763 H 109.608207178783 66.84922149117392 49.62343091084537 H 0.0 **** 0.06
31764 H 108.94781282064686 67.0919399810312 47.987986991361595 H 0.0 **** 0.06
31765 H 110.02390401873427 68.31540054100734 48.70295661942808 H 0.0 **** 0.06
31766 C 46.635506315336755 21.38226613161305 79.61882868145915 C 0.0 **** -0.24
31767 H 46.46837181203418 21.418046613067474 80.69479110504923 H 0.0 **** 0.06
31768 H 46.39878099363929 22.352903721483983 79.18231039298158 H 0.0 **** 0.06
31769 H 45.9955226685567 20.618517943788618 79.17687502614876 H 0.0 **** 0.06
31770 H 47.679876082241805 21.140325308630253 79.42177585554484 H 0.0 **** 0.06
31771 C 48.4654347603836 69.37702006904462 64.48612219667706 C 0.0 **** -0.24
31772 H 48.8462241352167 68.59398116924075 65.14293800467652 H 0.0 **** 0.06
31773 H 48.30792247579886 68.96894474548924 63.487991057102306 H 0.0 **** 0.06
31774 H 49.187295745430134 70.19135036099618 64.43612014659976 H 0.0 **** 0.06
31775 H 47.520162303263156 69.75187816058536 64.87973600878689 H 0.0 **** 0.06
31776 C 13.248472282323519 92.14195897509163 82.9448721523265 C 0.0 **** -0.24
31777 H 13.726544279304221 91.21678824666373 83.26690892705068 H 0.0 **** 0.06
31778 H 12.699747947105834 91.96462615513056 82.01983535721229 H 0.0 **** 0.06
31779 H 14.010020539843737 92.90401161835453 82.77651401513316 H 0.0 **** 0.06
31780 H 12.559687105704256 92.48272867017434 83.71743175849849 H 0.0 **** 0.06
31781 C 30.93717619764479 75.19410611133597 45.2693132412659 C 0.0 **** -0.24
31782 H 30.91539457751128 74.71895125207348 44.28877778172765 H 0.0 **** 0.06
31783 H 29.992004036104447 75.71199043293365 45.44217443775123 H 0.0 **** 0.06
31784 H 31.75692050755086 75.91160068031235 45.30854603133097 H 0.0 **** 0.06
31785 H 31.08111110717965 74.43495235827965 46.0381186199055 H 0.0 **** 0.06
31786 C 54.42109781258855 61.25363153488067 41.273230383734344 C 0.0 **** -0.24
31787 H 53.596398984210865 61.61704680272874 40.6613002461371 H 0.0 **** 0.06
31788 H 54.03172320441892 60.608885055107436 42.06174280309462 H 0.0 **** 0.06
31789 H 54.94160499178894 62.10082299479765 41.72110353711379 H 0.0 **** 0.06
31790 H 55.11456206132775 60.68842072322366 40.65170212081158 H 0.0 **** 0.06
31791 C 95.3487215383945 45.0772872556293 43.54633885318336 C 0.0 **** -0.24
31792 H 94.50687995004463 45.738947169066876 43.3423062827643 H 0.0 **** 0.06
31793 H 95.08630762436638 44.39423206500044 44.35530858903638 H 0.0 **** 0.06
31794 H 96.21512608179998 45.670490678334374 43.83882176831466 H 0.0 **** 0.06
31795 H 95.5868531608379 44.504222601667664 42.64950403152193 H 0.0 **** 0.06
31796 C 61.16394895567384 45.22236228219717 11.665199179654138 C 0.0 **** -0.24
31797 H 60.294098495215955 45.76968485451127 11.301705602202674 H 0.0 **** 0.06
31798 H 61.00170977685358 44.92763019226058 12.701346253787221 H 0.0 **** 0.06
31799 H 62.04641565025802 45.85986468069552 11.60194039011381 H 0.0 **** 0.06
31800 H 61.31488675208313 44.3323702663904 11.05310975514034 H 0.0 **** 0.06
31801 C 100.0747052302238 87.40781848587744 64.70230831763732 C 0.0 **** -0.24
31802 H 99.7369363325295 88.33932401686042 65.15541200329957 H 0.0 **** 0.06
31803 H 99.47472892261308 86.58112198916845 65.08158483147125 H 0.0 **** 0.06
31804 H 101.12328229658792 87.24184281164713 64.95135180150797 H 0.0 **** 0.06
31805 H 99.96486041832523 87.4710271973317 63.61892091625028 H 0.0 **** 0.06
31806 C 44.780217492040904 111.15601315882739 84.60060356579399 C 0.0 **** -0.24
31807 H 44.72346879010351 110.66748130640633 83.62725230780771 H 0.0 **** 0.06
31808 H 45.42248808065126 112.03466021156495 84.52866381002482 H 0.0 **** 0.06
31809 H 45.19315533113521 110.46203084622186 85.33233866135208 H 0.0 **** 0.06
31810 H 43.78103970760997 111.46021537986073 84.91184163278231 H 0.0 **** 0.06
31811 C 65.62727453823868 101.96944147879395 35.56289365008371 C 0.0 **** -0.24
31812 H 65.10796423699628 101.44443999876347 34.76087452826826 H 0.0 **** 0.06
31813 H 64.93496325002383 102.15184524169715 36.385009430468685 H 0.0 **** 0.06
31814 H 66.00720031387141 102.91958037365859 35.189781369274954 H 0.0 **** 0.06
31815 H 66.45896354589115 101.35950949470609 35.91644250680426 H 0.0 **** 0.06
31816 C 73.87525908013112 51.09279761257659 84.96347820711108 C 0.0 **** -0.24
31817 H 73.67163054592612 51.957457681475326 85.59450097136198 H 0.0 **** 0.06
31818 H 73.48169461017235 50.19430356167921 85.43916703262488 H 0.0 **** 0.06
31819 H 74.95107910809932 50.98979403722841 84.82544248338462 H 0.0 **** 0.06
31820 H 73.39618961572063 51.22974984999759 83.9939128740896 H 0.0 **** 0.06
31821 C 13.0119203395343 100.07110500095769 39.095103111360345 C 0.0 **** -0.24
31822 H 13.934788430599014 99.62386939848415 39.464617928709 H 0.0 **** 0.06
31823 H 12.221578439280222 99.32062804319463 39.09105425717638 H 0.0 **** 0.06
31824 H 13.168875418494181 100.43966165533999 38.080998812335565 H 0.0 **** 0.06
31825 H 12.724699424192323 100.89951465796764 39.74316330289315 H 0.0 **** 0.06
31826 C 26.664848752391237 99.47677415429837 50.63220559963767 C 0.0 **** -0.24
31827 H 26.886901752694712 98.41361565417088 50.72770373654387 H 0.0 **** 0.06
31828 H 25.98964280248518 99.63217106884679 49.79023757020724 H 0.0 **** 0.06
31829 H 27.589902061488317 100.02715521453365 50.46334352587374 H 0.0 **** 0.06
31830 H 26.19175475904416 99.83176774646915 51.54847471161483 H 0.0 **** 0.06
31831 C 91.49377947238963 28.316624365064825 7.758376075006716 C 0.0 **** -0.24
31832 H 92.34622544355597 27.652003231627532 7.617652907733042 H 0.0 **** 0.06
31833 H 91.13851013985123 28.661938189853686 6.786962923905351 H 0.0 **** 0.06
31834 H 91.7975870496345 29.174316017407648 8.359826375939083 H 0.0 **** 0.06
31835 H 90.69464669039536 27.779626713575823 8.268256103824427 H 0.0 **** 0.06
31836 C 55.818643639292276 21.088188293860725 38.36888506253812 C 0.0 **** -0.24
31837 H 54.929988180490824 20.462497883861893 38.44431918715276 H 0.0 **** 0.06
31838 H 55.92674104354748 21.443450894537943 37.34347787679049 H 0.0 **** 0.06
31839 H 56.69733198098038 20.505202964574508 38.64611300926048 H 0.0 **** 0.06
31840 H 55.72109485815753 21.94080204511651 39.041478891295355 H 0.0 **** 0.06
31841 C 73.40319855151014 10.444218653887745 22.28819874316389 C 0.0 **** -0.24
31842 H 74.37647028797892 10.933540254304773 22.247863889513837 H 0.0 **** 0.06
31843 H 72.77731334044617 10.81586437594919 21.476054282536637 H 0.0 **** 0.06
31844 H 72.9258193146083 10.66182315945737 23.243436258872038 H 0.0 **** 0.06
31845 H 73.53339484508749 9.367079840741567 22.183464342611444 H 0.0 **** 0.06
31846 C 99.44930678102867 108.54501481854703 55.12428345157164 C 0.0 **** -0.24
31847 H 100.10850677740387 107.71812559399241 54.860347936185406 H 0.0 **** 0.06
31848 H 99.88672198596385 109.48224790838927 54.78056925237425 H 0.0 **** 0.06
31849 H 99.324315439998 108.57823556773768 56.20745058666378 H 0.0 **** 0.06
31850 H 98.47844861074964 108.40085856046271 54.65101636815061 H 0.0 **** 0.06
31851 C 74.01662083493545 3.6972304405594656 3.798919526388147 C 0.0 **** -0.24
31852 H 73.13346710141556 3.0703173304764846 3.6791164318890424 H 0.0 **** 0.06
31853 H 74.18197101480877 3.8927844071198763 4.859138108284924 H 0.0 **** 0.06
31854 H 73.86689081281969 4.6414106682266265 3.274986300856284 H 0.0 **** 0.06
31855 H 74.88455437816839 3.185446730864001 3.384619973989203 H 0.0 **** 0.06
31856 C 90.99699092111558 20.562620146639915 53.385567550961106 C 0.0 **** -0.24
31857 H 91.28930570644721 19.863704044125654 52.6009582090855 H 0.0 **** 0.06
31858 H 90.74923939986914 20.008959645998857 54.29061316446659 H 0.0 **** 0.06
31859 H 90.12880240746293 21.133692053139242 53.05812150205423 H 0.0 **** 0.06
31860 H 91.82373877628882 21.244001183761924 53.591082429165986 H 0.0 **** 0.06
31861 C 69.55827384161807 83.43520227703169 108.2634094244639 C 0.0 **** -0.24
31862 H 70.22014196847093 84.29487554308469 108.3664474103947 H 0.0 **** 0.06
31863 H 68.64230160528018 83.61264046442884 108.82676981365304 H 0.0 **** 0.06
31864 H 70.05530041723088 82.54465174208482 108.64860643854736 H 0.0 **** 0.06
31865 H 69.31420148243708 83.28809094196154 107.2106414493406 H 0.0 **** 0.06
31866 C 77.4255511829773 51.65372202533541 3.8306088735230333 C 0.0 **** -0.24
31867 H 77.82436142834382 51.03241058064481 3.028670676950412 H 0.0 **** 0.06
31868 H 78.20774562772257 51.84358054622368 4.56535165895275 H 0.0 **** 0.06
31869 H 76.594211582686 51.13694032503514 4.3097617869310625 H 0.0 **** 0.06
31870 H 77.07634216168981 52.599841722526975 3.4180862435980544 H 0.0 **** 0.06
31871 C 52.243995539384144 82.34257067677302 9.396813620862318 C 0.0 **** -0.24
31872 H 51.15552264085329 82.30321738672828 9.344215965466802 H 0.0 **** 0.06
31873 H 52.54421931768434 82.97576123768158 10.232323552073396 H 0.0 **** 0.06
31874 H 52.637724843861236 82.75473945759867 8.468133117072199 H 0.0 **** 0.06
31875 H 52.636840542204055 81.33574797262449 9.543818119040395 H 0.0 **** 0.06
31876 C 111.10273208189864 4.126079132830355 62.25197583808685 C 0.0 **** -0.24
31877 H 111.6566007850881 4.145434543577906 61.3134763935395 H 0.0 **** 0.06
31878 H 111.60961480032941 3.4677384694520583 62.958632021335546 H 0.0 **** 0.06
31879 H 110.09343705104772 3.758495702491672 62.07075975488789 H 0.0 **** 0.06
31880 H 111.0540274424842 5.133809253275331 62.66475333513699 H 0.0 **** 0.06
31881 C 94.54427259342063 62.84732621407653 63.561208931758074 C 0.0 **** -0.24
31882 H 94.51314507998819 61.78276973901001 63.79633030478999 H 0.0 **** 0.06
31883 H 93.81704646078566 63.37569071141189 64.17792322093112 H 0.0 **** 0.06
31884 H 94.30508043074084 62.993999433628176 62.5081697880579 H 0.0 **** 0.06
31885 H 95.54320915089636 63.23384919887292 63.76488063611805 H 0.0 **** 0.06
31886 C 40.36497141173501 45.33198900813852 13.085618715720422 C 0.0 **** -0.24
31887 H 39.79573299191563 44.417060545707244 12.92114706470904 H 0.0 **** 0.06
31888 H 40.23847223807917 45.99686871535167 12.230932019058653 H 0.0 **** 0.06
31889 H 41.419777150725565 45.08596688062468 13.201985699753251 H 0.0 **** 0.06
31890 H 40.00490346629951 45.826376261397485 13.98733022958633 H 0.0 **** 0.06
31891 C 26.399872338331065 48.42827060812178 80.4795402470082 C 0.0 **** -0.24
31892 H 27.377198687664304 48.896808661083895 80.35777502203442 H 0.0 **** 0.06
31893 H 25.688494533611532 48.88822059759218 79.79368165309575 H 0.0 **** 0.06
31894 H 26.057205913412005 48.56548667472282 81.5054198182116 H 0.0 **** 0.06
31895 H 26.47857479256598 47.36332347943326 80.26198358745617 H 0.0 **** 0.06
31896 C 48.680609468224816 33.078827697250915 39.15090082415303 C 0.0 **** -0.24
31897 H 49.092230731205404 32.70470786126472 40.08788835386102 H 0.0 **** 0.06
31898 H 47.64000545756477 32.76569040947493 39.06053613522194 H 0.0 **** 0.06
31899 H 49.25453390155525 32.67818602340125 38.315986864345476 H 0.0 **** 0.06
31900 H 48.734978416050694 34.167961214435564 39.13921077983622 H 0.0 **** 0.06
31901 C 55.64965780219459 68.11253200125728 48.9271171357466 C 0.0 **** -0.24
31902 H 55.8091326678457 67.48571056652875 49.80374931244581 H 0.0 **** 0.06
31903 H 55.60614272582343 69.15828912705226 49.231393097186384 H 0.0 **** 0.06
31904 H 54.710970760115586 67.83510304979998 48.44754211236037 H 0.0 **** 0.06
31905 H 56.471649977194446 67.97138567791865 48.22463081928224 H 0.0 **** 0.06
31906 C 40.562622428641276 100.76500390299128 99.91464356625846 C 0.0 **** -0.24
31907 H 40.83561602655331 101.48595392772663 99.14474299680373 H 0.0 **** 0.06
31908 H 39.90686895522728 100.00675524490711 99.48560184689327 H 0.0 **** 0.06
31909 H 40.04292581684291 101.27806379807615 100.72468211067061 H 0.0 **** 0.06
31910 H 41.46286328161983 100.29025970818512 100.30330881590231 H 0.0 **** 0.06
31911 C 33.271758384493296 27.262671579028556 24.71243363999426 C 0.0 **** -0.24
31912 H 32.3746155507481 27.72021542983108 24.295067173452537 H 0.0 **** 0.06
31913 H 33.55539002598891 26.402020095451157 24.106267380633426 H 0.0 **** 0.06
31914 H 33.073388735802666 26.939822695130246 25.733749158794666 H 0.0 **** 0.06
31915 H 34.08376699241495 27.990792084236645 24.712576879947875 H 0.0 **** 0.06
31916 C 10.024314409644262 36.52443789995044 46.49420323204947 C 0.0 **** -0.24
31917 H 11.0925991826457 36.70244543754268 46.62469635326943 H 0.0 **** 0.06
31918 H 9.514848080827335 37.47586920930786 46.33901316752724 H 0.0 **** 0.06
31919 H 9.626478910880792 36.03958583970194 47.384813526593575 H 0.0 **** 0.06
31920 H 9.866143258981879 35.881605923531424 45.62841266138389 H 0.0 **** 0.06
31921 C 42.40946020918591 3.1775645488947646 86.93126609005142 C 0.0 **** -0.24
31922 H 42.417848784735696 4.236655561509622 86.67071794649249 H 0.0 **** 0.06
31923 H 41.44520397733086 2.746096885264393 86.6616849443779 H 0.0 **** 0.06
31924 H 42.571434560725066 3.0661459977831385 88.00371592341781 H 0.0 **** 0.06
31925 H 43.20288091397562 2.6642602360825833 86.38834193495896 H 0.0 **** 0.06
31926 C 48.80007590896205 96.9818452500059 105.67223747306221 C 0.0 **** -0.24
31927 H 47.985547803597214 97.38520605588482 106.27464304176934 H 0.0 **** 0.06
31928 H 48.61164978295412 95.92799178658541 105.46665566973994 H 0.0 **** 0.06
31929 H 49.738543432473115 97.08303971684666 106.21782321935655 H 0.0 **** 0.06
31930 H 48.864366096049025 97.5308107719479 104.7328030616494 H 0.0 **** 0.06
31931 C 48.92772457836378 42.05021262578672 70.82683130855023 C 0.0 **** -0.24
31932 H 48.25714085553369 42.07427659414182 69.96707619126587 H 0.0 **** 0.06
31933 H 48.40611155743761 41.61665434100599 71.68088899818463 H 0.0 **** 0.06
31934 H 49.243126287339294 43.064426784926255 71.06907027432322 H 0.0 **** 0.06
31935 H 49.80184139936904 41.44383030137098 70.58827380423239 H 0.0 **** 0.06
31936 C 23.32238638489696 71.3772998860037 57.7107617653023 C 0.0 **** -0.24
31937 H 24.122638623309214 72.11409997345558 57.780907194163156 H 0.0 **** 0.06
31938 H 23.50043071161994 70.72937035555165 56.85121533986542 H 0.0 **** 0.06
31939 H 22.367535556056424 71.88866592728817 57.58815236273624 H 0.0 **** 0.06
31940 H 23.29976458656415 70.77708638916772 58.61955949942648 H 0.0 **** 0.06
31941 C 15.575681789822625 0.8837551683819669 27.5826718391462 C 0.0 **** -0.24
31942 H 15.814693630297114 1.098082404117548 26.540672987521873 H 0.0 **** 0.06
31943 H 14.583197047438375 0.4363916659579701 27.641835630288142 H 0.0 **** 0.06
31944 H 15.592487539077041 1.8104689506435534 28.156668832028515 H 0.0 **** 0.06
31945 H 16.312408469589116 0.19151640347239152 27.9880563220608 H 0.0 **** 0.06
31946 C 55.81546277948718 60.02706704791317 12.37075614916182 C 0.0 **** -0.24
31947 H 56.275985241830085 60.987701046052216 12.600842563405934 H 0.0 **** 0.06
31948 H 54.84498297191118 59.96248378484648 12.86295462938699 H 0.0 **** 0.06
31949 H 56.458041904422885 59.22219340717701 12.72679385185819 H 0.0 **** 0.06
31950 H 55.68331222472233 59.93677088375673 11.292389214656737 H 0.0 **** 0.06
31951 C 80.46025228487218 15.867813207883415 0.2616104317190775 C 0.0 **** -0.24
31952 H 79.71720020293492 15.296806248638703 -0.2952342990374177 H 0.0 **** 0.06
31953 H 80.10821447067767 16.890814596765665 0.3951055091017679 H 0.0 **** 0.06
31954 H 81.40039932169464 15.875563584077724 -0.2909481045784901 H 0.0 **** 0.06
31955 H 80.61572157351819 15.4062165498826 1.2369766411386252 H 0.0 **** 0.06
31956 C 31.62958354768071 54.59047664181696 19.786483905449245 C 0.0 **** -0.24
31957 H 31.757056412910003 55.673012470559485 19.754230245711653 H 0.0 **** 0.06
31958 H 31.257449546016204 54.29692214805155 20.76824123623493 H 0.0 **** 0.06
31959 H 32.588339210045234 54.10621259951668 19.600136577594014 H 0.0 **** 0.06
31960 H 30.914677082123262 54.286763868874715 19.021246208253842 H 0.0 **** 0.06
31961 C 98.1776529488316 72.28404103661208 54.08295747298411 C 0.0 **** -0.24
31962 H 98.90598439056419 72.4088061014059 53.28170072508472 H 0.0 **** 0.06
31963 H 97.24109424032451 72.76478215915563 53.800139234287094 H 0.0 **** 0.06
31964 H 98.56060583900563 72.74036449284543 54.99604969523482 H 0.0 **** 0.06
31965 H 98.0038880427571 71.22194915371688 54.25384908097097 H 0.0 **** 0.06
31966 C 110.79194495060858 4.766600918053413 53.378861718475505 C 0.0 **** -0.24
31967 H 111.87999834442293 4.7445715096231424 53.4491608954839 H 0.0 **** 0.06
31968 H 110.48335360387524 4.405663562487547 52.39788466482974 H 0.0 **** 0.06
31969 H 110.44056287487956 5.789360769254003 53.517765832798396 H 0.0 **** 0.06
31970 H 110.36595066519256 4.128228019877781 54.15225828324641 H 0.0 **** 0.06
31971 C 96.45924666099518 58.165472332711666 100.0433435837067 C 0.0 **** -0.24
31972 H 97.53761432713847 58.09179232432229 99.89878949342511 H 0.0 **** 0.06
31973 H 96.1041912288062 59.11778156266215 99.64954648314907 H 0.0 **** 0.06
31974 H 96.23064534470564 58.10269213492651 101.10662595403076 H 0.0 **** 0.06
31975 H 95.96605925297831 57.348396848658716 99.5161374923436 H 0.0 **** 0.06
31976 C 34.416526786550676 8.931020501242429 86.05267775742556 C 0.0 **** -0.24
31977 H 34.51490071267085 9.954624278022791 86.4150647138423 H 0.0 **** 0.06
31978 H 33.490176443772455 8.49895882853779 86.43109701895253 H 0.0 **** 0.06
31979 H 35.26288880860494 8.339867197898506 86.4022968141733 H 0.0 **** 0.06
31980 H 34.399305111522466 8.93252655783418 84.96248714299793 H 0.0 **** 0.06
31981 C 84.72684911248967 2.97555885609394 7.544961748799437 C 0.0 **** -0.24
31982 H 85.21387871715945 3.867896281695323 7.9372759487057465 H 0.0 **** 0.06
31983 H 85.48047017694057 2.2961118092655113 7.14620691233506 H 0.0 **** 0.06
31984 H 84.03530765910034 3.2582808121430133 6.750999452349845 H 0.0 **** 0.06
31985 H 84.17773989675834 2.4799465212718985 8.345364681807041 H 0.0 **** 0.06
31986 C 65.49898797029596 72.22798626598666 93.70954824957079 C 0.0 **** -0.24
31987 H 64.83472613412331 73.03309066847501 94.0229672649113 H 0.0 **** 0.06
31988 H 65.06519635651372 71.26841713164603 93.99531816454817 H 0.0 **** 0.06
31989 H 66.46766211745745 72.34773107549356 94.19369172828124 H 0.0 **** 0.06
31990 H 65.62553461342043 72.26192113581695 92.62775218546113 H 0.0 **** 0.06
31991 C 32.95716136321914 61.58546055489364 49.34008324498587 C 0.0 **** -0.24
31992 H 33.810647438638625 61.99624885130237 49.880243344262176 H 0.0 **** 0.06
31993 H 32.069942089804385 61.63243630786323 49.97286181920875 H 0.0 **** 0.06
31994 H 33.160215334266354 60.547486016643546 49.07618299540613 H 0.0 **** 0.06
31995 H 32.788242898772125 62.16600024195503 48.43269707604376 H 0.0 **** 0.06
31996 C 32.72716314565125 85.19685611393396 9.685340617120232 C 0.0 **** -0.24
31997 H 32.73353806159224 84.25929820121905 9.130433555861543 H 0.0 **** 0.06
31998 H 33.5260937674021 85.84157098150956 9.318151253130083 H 0.0 **** 0.06
31999 H 32.88398222501502 84.9922946165189 10.744788965681693 H 0.0 **** 0.06
32000 H 31.767187451799686 85.6937462058724 9.550017974502111 H 0.0 **** 0.06
32001 C 76.98931195884848 42.60864517486414 68.64064765795041 C 0.0 **** -0.24
32002 H 76.54792525476671 43.0139293695654 67.73068016794585 H 0.0 **** 0.06
32003 H 77.94628506141726 43.09540155465373 68.82838175201113 H 0.0 **** 0.06
32004 H 77.14388976122262 41.53562493718965 68.52236947860374 H 0.0 **** 0.06
32005 H 76.31884440432998 42.78792571897776 69.48130463309059 H 0.0 **** 0.06
32006 C 64.4793513977639 30.044404557633754 74.78425471323459 C 0.0 **** -0.24
32007 H 64.81881180719657 31.014063049861818 75.14635185838392 H 0.0 **** 0.06
32008 H 63.471127385184616 29.852520800035776 75.15190587454799 H 0.0 **** 0.06
32009 H 65.1519744969981 29.26602744801022 75.14394987160296 H 0.0 **** 0.06
32010 H 64.47430608831263 30.04624006792355 73.69377517364694 H 0.0 **** 0.06
32011 C 62.32679188897322 18.638810245273874 53.462733379491056 C 0.0 **** -0.24
32012 H 62.47366204738884 19.590858791145877 53.97088690347897 H 0.0 **** 0.06
32013 H 63.17368343700946 18.444000022244893 52.80417501729926 H 0.0 **** 0.06
32014 H 61.409840597855066 18.67937390033552 52.873352003411185 H 0.0 **** 0.06
32015 H 62.249803843541486 17.841635825114622 54.20091497886909 H 0.0 **** 0.06
32016 C 9.895548142388918 84.31741268027179 40.64934518768163 C 0.0 **** -0.24
32017 H 8.928939946316234 84.82198809276082 40.67033827952244 H 0.0 **** 0.06
32018 H 10.100765177794756 83.9665299552527 39.63795373339826 H 0.0 **** 0.06
32019 H 9.876569171109224 83.46852811463555 41.33221789612955 H 0.0 **** 0.06
32020 H 10.675497996495267 85.01444506596849 40.95806924986505 H 0.0 **** 0.06
32021 C 10.396727108818055 12.062749483531121 85.63923520497974 C 0.0 **** -0.24
32022 H 9.960808552386666 11.215813342833599 85.1095904550902 H 0.0 **** 0.06
32023 H 9.886921194841506 12.979214774260868 85.34162017392075 H 0.0 **** 0.06
32024 H 11.455740923929113 12.139162423119416 85.39207288822399 H 0.0 **** 0.06
32025 H 10.284435876215483 11.916784378482674 86.71371474177005 H 0.0 **** 0.06
32026 C 85.69160063081961 35.92696867190128 100.26145241767705 C 0.0 **** -0.24
32027 H 85.18522743476669 34.96428114402184 100.3331623348179 H 0.0 **** 0.06
32028 H 85.87738418167979 36.16104076257338 99.21244421454259 H 0.0 **** 0.06
32029 H 86.63932576178067 35.8796260412517 100.79744506598672 H 0.0 **** 0.06
32030 H 85.06296858683515 36.70090378681826 100.70112450541674 H 0.0 **** 0.06
32031 C 108.78486437099956 51.870567327538964 66.04586232362709 C 0.0 **** -0.24
32032 H 108.4350599193237 52.690474332454954 65.41936676727107 H 0.0 **** 0.06
32033 H 107.93677432801165 51.254678430491566 66.34579824986781 H 0.0 **** 0.06
32034 H 109.27302210096748 52.27434757160614 66.93337851333803 H 0.0 **** 0.06
32035 H 109.49528531652837 51.26273474766265 65.4864966427844 H 0.0 **** 0.06
32036 C 47.97705908647637 50.14221592663682 76.49246065338428 C 0.0 **** -0.24
32037 H 47.434344974538675 50.18323343240684 75.54970131422448 H 0.0 **** 0.06
32038 H 47.76440865672808 51.03966387914949 77.07438111433189 H 0.0 **** 0.06
32039 H 49.04732983576278 50.08398745728044 76.29305556734136 H 0.0 **** 0.06
32040 H 47.664746986787605 49.261803592580804 77.05420140377649 H 0.0 **** 0.06
32041 C 48.98153397138924 81.22687061393322 30.71702581087837 C 0.0 **** -0.24
32042 H 48.7275628004906 81.32112979534423 29.66075534504992 H 0.0 **** 0.06
32043 H 48.45123189431541 80.37380687032658 31.142328577790025 H 0.0 **** 0.06
32044 H 48.68878571352877 82.13544890851446 31.24310215748379 H 0.0 **** 0.06
32045 H 50.055531473303574 81.07621562755776 30.820475125606833 H 0.0 **** 0.06
32046 C 13.111488547296176 45.7588101420304 50.91315522747817 C 0.0 **** -0.24
32047 H 12.217173294028356 45.952636451029036 50.32085464138345 H 0.0 **** 0.06
32048 H 13.938243592341848 45.50480793053708 50.2500569382241 H 0.0 **** 0.06
32049 H 12.922598434809203 44.92910204256714 51.59444693691889 H 0.0 **** 0.06
32050 H 13.366036624955044 46.649409845972485 51.488629720117174 H 0.0 **** 0.06
32051 C 77.72810713405676 3.3895252663579356 27.83126153400272 C 0.0 **** -0.24
32052 H 78.34101890096767 4.055161500350508 28.43728450404228 H 0.0 **** 0.06
32053 H 78.26006124734988 3.139693470596825 26.913120858372565 H 0.0 **** 0.06
32054 H 76.78802667935551 3.883720470875005 27.584587114170148 H 0.0 **** 0.06
32055 H 77.52163601204845 2.476308242639334 28.39095237023335 H 0.0 **** 0.06
32056 C 75.62069072839364 111.31139819018604 2.252817993586376 C 0.0 **** -0.24
32057 H 74.9693890023392 110.53374738611163 1.8556346629856932 H 0.0 **** 0.06
32058 H 75.40031989042703 111.4659002931108 3.309744795474927 H 0.0 **** 0.06
32059 H 75.45208340068146 112.24017052024841 1.7074832921463212 H 0.0 **** 0.06
32060 H 76.66172070573333 111.0084624214519 2.1388709953624243 H 0.0 **** 0.06
32061 C 6.776007856058811 22.579535676638542 40.12499402460767 C 0.0 **** -0.24
32062 H 7.486144462064516 23.343323266443235 40.439622100509695 H 0.0 **** 0.06
32063 H 6.419076879702075 22.807270092154 39.120788029531354 H 0.0 **** 0.06
32064 H 5.932701958870993 22.56075687903902 40.81539312220991 H 0.0 **** 0.06
32065 H 7.266330550118425 21.60545665554308 40.124580574664236 H 0.0 **** 0.06
32066 C 94.05118134876051 38.2873550942233 48.808364523629905 C 0.0 **** -0.24
32067 H 94.36597191655841 38.97035902496945 49.59717495845371 H 0.0 **** 0.06
32068 H 94.34887222038242 38.69021389840072 47.83967190707584 H 0.0 **** 0.06
32069 H 92.96725306074808 38.17412046036027 48.83772097398493 H 0.0 **** 0.06
32070 H 94.5219934067589 37.31597664710543 48.95870178916902 H 0.0 **** 0.06
32071 C 69.14206499098972 64.96966365378157 9.223041119886531 C 0.0 **** -0.24
32072 H 69.22466766486758 65.7494927894484 9.97968084307999 H 0.0 **** 0.06
32073 H 68.29890808064056 65.18727869618738 8.56762484553468 H 0.0 **** 0.06
32074 H 68.98473459113 64.00694207989136 9.710001837986155 H 0.0 **** 0.06
32075 H 70.05997523450174 64.93388372884127 8.635795851520399 H 0.0 **** 0.06
32076 C 86.60870841152675 74.35241680035136 93.77506937779685 C 0.0 **** -0.24
32077 H 87.11206683807444 74.53681037220977 94.72433789422237 H 0.0 **** 0.06
32078 H 86.59073124825085 75.27136744412746 93.18972598549095 H 0.0 **** 0.06
32079 H 85.58813531600876 74.02061954451918 93.96367870438189 H 0.0 **** 0.06
32080 H 87.14576334800182 73.58039578263381 93.2230865960338 H 0.0 **** 0.06
32081 C 13.829505488307795 75.35268136407163 72.0287914886585 C 0.0 **** -0.24
32082 H 14.02555620144371 74.49896105501634 72.67719191934037 H 0.0 **** 0.06
32083 H 12.79490759742136 75.31856716300408 71.68642932233035 H 0.0 **** 0.06
32084 H 14.498850000233855 75.31692438769446 71.16908760412377 H 0.0 **** 0.06
32085 H 13.998917643496814 76.27544388574881 72.5829757496133 H 0.0 **** 0.06
32086 C 46.324256195503494 79.65293524113832 52.46209812941419 C 0.0 **** -0.24
32087 H 45.923659281301354 80.65683784408131 52.604211070657925 H 0.0 **** 0.06
32088 H 46.030984380804085 79.28103385065688 51.48067143578146 H 0.0 **** 0.06
32089 H 45.929539648454664 78.99303963535644 53.235098171970606 H 0.0 **** 0.06
32090 H 47.41164691413033 79.68282701517128 52.53001930833801 H 0.0 **** 0.06
32091 C 22.2232526049321 9.233146783373115 65.27542775562083 C 0.0 **** -0.24
32092 H 23.238147729927903 8.984369514662944 64.96521629985557 H 0.0 **** 0.06
32093 H 21.632639244116035 9.504271327384089 64.4004993505263 H 0.0 **** 0.06
32094 H 22.25094764551295 10.073044877132986 65.96971701374946 H 0.0 **** 0.06
32095 H 21.772108699319347 8.370496127439836 65.76590142561938 H 0.0 **** 0.06
32096 C 96.62295539320138 81.89215613906217 81.25672266920839 C 0.0 **** -0.24
32097 H 97.5111770604106 82.29899533806685 81.7395388820708 H 0.0 **** 0.06
32098 H 96.91931155053297 81.13120535744054 80.53493301042019 H 0.0 **** 0.06
32099 H 96.08976582198821 82.6931372719591 80.74415411461561 H 0.0 **** 0.06
32100 H 95.97233147399345 81.44672806959824 82.00884613045784 H 0.0 **** 0.06
32101 C 19.800185074292358 32.15403685731184 2.993424188264811 C 0.0 **** -0.24
32102 H 20.476272998146243 31.382607013192455 3.3640150487290725 H 0.0 **** 0.06
32103 H 19.1481160132941 32.48418640831426 3.8028688599931115 H 0.0 **** 0.06
32104 H 19.195834765028565 31.747767251597395 2.182575816512383 H 0.0 **** 0.06
32105 H 20.380900693241557 32.99946516258893 2.6248299324265076 H 0.0 **** 0.06
32106 C 26.714573884126636 25.627284731699717 40.61162578901913 C 0.0 **** -0.24
32107 H 27.771776510867305 25.86294211038245 40.49088814854069 H 0.0 **** 0.06
32108 H 26.23458811226447 25.599166081338183 39.63375240717145 H 0.0 **** 0.06
32109 H 26.24082951674678 26.39123160329521 41.228230078487606 H 0.0 **** 0.06
32110 H 26.611932478102844 24.65529071885129 41.09465767226635 H 0.0 **** 0.06
32111 C 112.48319490599688 71.26339608251644 41.082684492332845 C 0.0 **** -0.24
32112 H 111.7804279436964 71.96748150226759 41.528365674826844 H 0.0 **** 0.06
32113 H 113.3146811002283 71.09813696597351 41.76706411177696 H 0.0 **** 0.06
32114 H 112.85921601227867 71.67100408300593 40.145020822076475 H 0.0 **** 0.06
32115 H 111.97557202920432 70.31775544813982 40.890535495407065 H 0.0 **** 0.06
32116 C 61.64122690510667 52.77342429846823 74.97541282954239 C 0.0 **** -0.24
32117 H 62.68251109798809 52.66333913654108 74.67076559286505 H 0.0 **** 0.06
32118 H 61.10152509716246 53.34745536994109 74.22139045099539 H 0.0 **** 0.06
32119 H 61.5959741693409 53.29536359907502 75.93100893639138 H 0.0 **** 0.06
32120 H 61.18708815610042 51.78799303523971 75.07748922759416 H 0.0 **** 0.06
32121 C 6.691140832041839 26.97617833482083 56.43719914060267 C 0.0 **** -0.24
32122 H 5.759524830336886 27.51375663167576 56.2558908824148 H 0.0 **** 0.06
32123 H 7.031519120719111 27.1741514333428 57.45375837739061 H 0.0 **** 0.06
32124 H 7.44817106321139 27.311933740244342 55.728471458344245 H 0.0 **** 0.06
32125 H 6.523967265871931 25.906892455838424 56.31058138955291 H 0.0 **** 0.06
32126 C 6.1289372583655926 5.426958306947824 35.10916846315925 C 0.0 **** -0.24
32127 H 5.2743633869773685 5.352674166182055 34.43687259294229 H 0.0 **** 0.06
32128 H 6.920342281710193 6.0010912814387325 34.62789434539413 H 0.0 **** 0.06
32129 H 6.4954194924242525 4.426823592862036 35.34239531603634 H 0.0 **** 0.06
32130 H 5.8254942581729185 5.926321224105891 36.029149112657635 H 0.0 **** 0.06
32131 C 96.44005016980856 50.50603269327314 110.00416798564764 C 0.0 **** -0.24
32132 H 96.8027549173197 51.159397953424275 110.7972804976495 H 0.0 **** 0.06
32133 H 97.24118866908017 49.83785369615225 109.68849994348217 H 0.0 **** 0.06
32134 H 96.11437399084392 51.11043735582473 109.15648731237425 H 0.0 **** 0.06
32135 H 95.59989352388615 49.91785486577078 110.37461649341073 H 0.0 **** 0.06
32136 C 20.23847391269004 70.67413305395533 34.29736755389115 C 0.0 **** -0.24
32137 H 20.227756517761065 71.59351130385477 33.71270858541476 H 0.0 **** 0.06
32138 H 20.492036876658887 70.90503403810382 35.33283317124551 H 0.0 **** 0.06
32139 H 20.980733770999052 69.99083373654085 33.884817275709224 H 0.0 **** 0.06
32140 H 19.25424570900998 70.20763061002594 34.259161731940424 H 0.0 **** 0.06
32141 C 109.95647600773805 38.1000404968787 87.20298215217929 C 0.0 **** -0.24
32142 H 109.02841016574467 38.49014507901854 86.78768048316834 H 0.0 **** 0.06
32143 H 110.14862200451549 38.569876743372376 88.1684143347598 H 0.0 **** 0.06
32144 H 110.77963863018395 38.31872068906489 86.52215052226285 H 0.0 **** 0.06
32145 H 109.871336883886 37.02131152603654 87.33443378360067 H 0.0 **** 0.06
32146 C 107.46356871318193 38.56116091428771 58.913713408972036 C 0.0 **** -0.24
32147 H 106.80222707290751 37.74793108281426 59.21106977924712 H 0.0 **** 0.06
32148 H 106.87342115461975 39.366917694668814 58.474519385160214 H 0.0 **** 0.06
32149 H 108.18194806869087 38.195513757239894 58.1801947441817 H 0.0 **** 0.06
32150 H 107.99574299254695 38.93571001973112 59.78878138247051 H 0.0 **** 0.06
32151 C 93.30054720426673 46.90628830134432 7.694361040471708 C 0.0 **** -0.24
32152 H 93.04893639453329 46.77103515889581 6.64231161435452 H 0.0 **** 0.06
32153 H 93.83939649957651 46.03034866368685 8.054878098878426 H 0.0 **** 0.06
32154 H 92.38496585307408 47.03384760141935 8.272922075771197 H 0.0 **** 0.06
32155 H 93.92652890540097 47.79158716021655 7.8057038644965395 H 0.0 **** 0.06
32156 C 57.30050218094164 66.46952361890945 52.281236598753964 C 0.0 **** -0.24
32157 H 56.6414104553548 65.66464005121492 51.955879980450845 H 0.0 **** 0.06
32158 H 58.0218932462414 66.07979353807607 52.99985389530278 H 0.0 **** 0.06
32159 H 56.70943489174085 67.25677731744074 52.74931829107379 H 0.0 **** 0.06
32160 H 57.82929205303356 66.87618948647639 51.41866220447591 H 0.0 **** 0.06
32161 C 48.53747930608054 52.66296143552484 37.48715294219227 C 0.0 **** -0.24
32162 H 48.570573760476464 51.60800021437334 37.761205907329675 H 0.0 **** 0.06
32163 H 47.69260173923905 52.83888227697246 36.82131801949096 H 0.0 **** 0.06
32164 H 49.46277214803723 52.935364028704946 36.97991399600046 H 0.0 **** 0.06
32165 H 48.42440348531318 53.268268026418106 38.38597445978223 H 0.0 **** 0.06
32166 C 36.50600137307186 103.72621464712634 12.032619704706889 C 0.0 **** -0.24
32167 H 36.70598554648061 104.56771619799346 11.368170349549988 H 0.0 **** 0.06
32168 H 36.062630964734716 102.91080402628589 11.461409961901307 H 0.0 **** 0.06
32169 H 35.81653394842918 104.03869204590768 12.81629430648647 H 0.0 **** 0.06
32170 H 37.43965522586357 103.38947222541807 12.482362267664254 H 0.0 **** 0.06
32171 C 39.37435742855507 36.878934879332206 77.65959432139991 C 0.0 **** -0.24
32172 H 38.6218456824877 36.43957365617024 77.00561793449441 H 0.0 **** 0.06
32173 H 39.8277971317371 36.09643404244949 78.26924368766561 H 0.0 **** 0.06
32174 H 38.90603232370947 37.61853833351225 78.3079457978107 H 0.0 **** 0.06
32175 H 40.14362417017384 37.360006375982124 77.05526055344887 H 0.0 **** 0.06
32176 C 54.16740106343747 33.81312148823233 25.095400743988932 C 0.0 **** -0.24
32177 H 53.337227533202906 33.84745457047924 24.39085446283974 H 0.0 **** 0.06
32178 H 53.9073621186395 34.377857268714216 25.99108075051899 H 0.0 **** 0.06
32179 H 55.054012317610244 34.25030286869275 24.634790945936743 H 0.0 **** 0.06
32180 H 54.37100228429705 32.77687124504307 25.3648768166602 H 0.0 **** 0.06
32181 C 19.536970722900907 57.95961259281165 2.300589794509875 C 0.0 **** -0.24
32182 H 19.853768541013153 57.05050480706109 1.7904128544114144 H 0.0 **** 0.06
32183 H 19.865661680266996 57.92729710247346 3.3393849415825088 H 0.0 **** 0.06
32184 H 18.45001912244812 58.03587700553743 2.2656273859616647 H 0.0 **** 0.06
32185 H 19.976998396217294 58.82567977955796 1.8065942042058936 H 0.0 **** 0.06
32186 C 79.54585749740531 111.70290849388132 22.028939715677467 C 0.0 **** -0.24
32187 H 78.82926437222358 112.29434918591713 21.459962097160343 H 0.0 **** 0.06
32188 H 79.75940435454504 110.77717251356104 21.494068650089673 H 0.0 **** 0.06
32189 H 79.12724227623926 111.46837110577016 23.008402315503844 H 0.0 **** 0.06
32190 H 80.46732404837886 112.27121285308276 22.1554898617957 H 0.0 **** 0.06
32191 C 63.68042857029267 90.47054497828572 106.4292427833002 C 0.0 **** -0.24
32192 H 63.06835724645935 90.16750689335544 107.27822155437909 H 0.0 **** 0.06
32193 H 63.04825499667802 90.58988754320313 105.54879382398022 H 0.0 **** 0.06
32194 H 64.43404137892665 89.70715130365437 106.23480450280516 H 0.0 **** 0.06
32195 H 64.1723050160503 91.41696874206019 106.65505695992849 H 0.0 **** 0.06
32196 C 68.06437768585991 66.63424418016308 84.71904351243074 C 0.0 **** -0.24
32197 H 67.95849088180773 67.00161121304785 85.73973241235416 H 0.0 **** 0.06
32198 H 68.07954018175059 65.5431362510945 84.72605267041746 H 0.0 **** 0.06
32199 H 68.99538269205863 67.00842403081305 84.29355968038664 H 0.0 **** 0.06
32200 H 67.22407434223115 66.98246341179203 84.11887852129095 H 0.0 **** 0.06
32201 C 70.50019352689111 81.28806833190365 67.44913699417134 C 0.0 **** -0.24
32202 H 69.6585653931632 81.05888806968656 66.79537641810921 H 0.0 **** 0.06
32203 H 70.72978029010994 82.35203929381947 67.38653402400973 H 0.0 **** 0.06
32204 H 71.36991472148878 80.70830288327522 67.13815223041888 H 0.0 **** 0.06
32205 H 70.24119574638496 81.03134472278714 68.47710081567911 H 0.0 **** 0.06
32206 C 59.02666636496662 45.30960993351517 0.8664486870996626 C 0.0 **** -0.24
32207 H 59.4039378367379 44.288772519932245 0.9259935848422458 H 0.0 **** 0.06
32208 H 58.84104835204696 45.687997974825635 1.8720355181613826 H 0.0 **** 0.06
32209 H 58.09706701744157 45.3208575011535 0.2961022848048884 H 0.0 **** 0.06
32210 H 59.764612253639946 45.94081173814918 0.3716633605899773 H 0.0 **** 0.06
32211 C 21.149714606813404 9.248901510799882 73.87692644453247 C 0.0 **** -0.24
32212 H 22.13670277369698 8.97695363428204 74.25070857927037 H 0.0 **** 0.06
32213 H 21.074462751414586 10.33445055544837 73.80826889713774 H 0.0 **** 0.06
32214 H 20.38759572974891 8.874162831300524 74.56026174628482 H 0.0 **** 0.06
32215 H 21.000977202737317 8.80970784200916 72.89072845875884 H 0.0 **** 0.06
32216 C 107.26781287247691 69.0267914656007 39.290831185731804 C 0.0 **** -0.24
32217 H 106.54396651559294 69.10946872553836 38.481158280699795 H 0.0 **** 0.06
32218 H 107.48533467403159 70.01963812059955 39.68592640870567 H 0.0 **** 0.06
32219 H 108.18592205442278 68.57671184682772 38.91262055489557 H 0.0 **** 0.06
32220 H 106.85690784877673 68.40162298925236 40.0832318404485 H 0.0 **** 0.06
32221 C 26.03107832439261 2.3829578246819096 101.06607777190948 C 0.0 **** -0.24
32222 H 26.871162629826586 2.248718119978477 101.74751041840398 H 0.0 **** 0.06
32223 H 25.555723208160742 3.3453081152385096 101.2600698150876 H 0.0 **** 0.06
32224 H 25.307186790779696 1.582651867968309 101.22025242252516 H 0.0 **** 0.06
32225 H 26.389586429682822 2.3555516277981354 100.0376672698601 H 0.0 **** 0.06
32226 C 76.82141564537363 11.72353072763525 49.12713563847621 C 0.0 **** -0.24
32227 H 77.76868041853436 12.257781741250511 49.202962515936406 H 0.0 **** 0.06
32228 H 76.43884446642488 11.518922768980985 50.12770114713692 H 0.0 **** 0.06
32229 H 76.97716858736578 10.783228283154557 48.59802058482737 H 0.0 **** 0.06
32230 H 76.1030226197401 12.33399077412912 48.58072065182374 H 0.0 **** 0.06
32231 C 104.3290946026357 9.465458497910404 12.46155445868834 C 0.0 **** -0.24
32232 H 105.06271987862567 8.725793960754203 12.141230082304986 H 0.0 **** 0.06
32233 H 103.85079790066311 9.128656565607528 13.381160950796186 H 0.0 **** 0.06
32234 H 103.576134975826 9.59000014193552 11.683712228748846 H 0.0 **** 0.06
32235 H 104.82894595547126 10.4184174463564 12.640079965732667 H 0.0 **** 0.06
32236 C 27.21063149502652 46.555242388433186 55.55432986779164 C 0.0 **** -0.24
32237 H 26.72424433547181 45.75027913893868 56.106884106811776 H 0.0 **** 0.06
32238 H 26.503326313312783 46.98629272323883 54.84535355350721 H 0.0 **** 0.06
32239 H 28.070168879747342 46.15853367351043 55.01560361692066 H 0.0 **** 0.06
32240 H 27.54161234281932 47.32578913897268 56.251458148691256 H 0.0 **** 0.06
32241 C 102.74997384122489 2.5210497313854603 24.06606742880652 C 0.0 **** -0.24
32242 H 102.97704536096111 3.0284954543278104 25.002990949712853 H 0.0 **** 0.06
32243 H 103.28664769183507 1.5730976349361896 24.027345442135584 H 0.0 **** 0.06
32244 H 103.05944145853908 3.148285356011627 23.229238454208556 H 0.0 **** 0.06
32245 H 101.67836779386838 2.33540246175086 24.00419759075585 H 0.0 **** 0.06
32246 C 59.896807426468456 30.85135335879528 46.039452923390854 C 0.0 **** -0.24
32247 H 59.70225816931361 30.338040292062345 45.098527001144646 H 0.0 **** 0.06
32248 H 59.201905572441376 30.492284811043305 46.79962505553772 H 0.0 **** 0.06
32249 H 59.76292230643469 31.924039682437865 45.90241215073894 H 0.0 **** 0.06
32250 H 60.91943322100195 30.651066643791467 46.35795105749963 H 0.0 **** 0.06
32251 C 63.01353342773137 83.73947725820113 65.63431785669178 C 0.0 **** -0.24
32252 H 62.2594235004783 83.0450493783143 66.00576983412208 H 0.0 **** 0.06
32253 H 63.01040015039711 83.7298939255395 64.54493286431688 H 0.0 **** 0.06
32254 H 63.995106386913044 83.43761597187742 65.99906112706668 H 0.0 **** 0.06
32255 H 62.78664692616032 84.74426169151047 65.99055393061536 H 0.0 **** 0.06
32256 C 0.3639943896798741 1.594677497081591 55.36163000108212 C 0.0 **** -0.24
32257 H 1.261266759438115 0.9764509889698445 55.3947915118016 H 0.0 **** 0.06
32258 H 0.6058491841315572 2.5615808530929343 54.92055343259415 H 0.0 **** 0.06
32259 H -0.014245649393046733 1.740279200596163 56.37294446513906 H 0.0 **** 0.06
32260 H -0.39547699758759336 1.098949340799848 54.75728475356516 H 0.0 **** 0.06
32261 C 2.3975744593986406 45.78748099054104 76.63464716090522 C 0.0 **** -0.24
32262 H 2.8572114506861794 46.77455127743576 76.67407328697999 H 0.0 **** 0.06
32263 H 1.8641048085661396 45.673343456409924 75.69029223844663 H 0.0 **** 0.06
32264 H 1.6978527921540376 45.67951687635821 77.46322709768077 H 0.0 **** 0.06
32265 H 3.1715453704760534 45.023584856338005 76.70970127649943 H 0.0 **** 0.06
32266 C 38.555979252806424 103.32524455193936 64.17933663717776 C 0.0 **** -0.24
32267 H 39.13768454411968 102.91592245791438 65.00588296009977 H 0.0 **** 0.06
32268 H 37.528670518533204 102.96593100139793 64.24579693399039 H 0.0 **** 0.06
32269 H 38.99375923167469 103.0050197134035 63.23422389541804 H 0.0 **** 0.06
32270 H 38.56487287020673 104.41393435824565 64.23363957090805 H 0.0 **** 0.06
32271 C 49.673576867040936 16.080030396873013 51.54760721397716 C 0.0 **** -0.24
32272 H 49.81315716787857 15.970698295487608 50.472062594589104 H 0.0 **** 0.06
32273 H 50.41047696795358 16.782273118384637 51.93977923838847 H 0.0 **** 0.06
32274 H 49.800805773523415 15.111206244553244 52.030059208050766 H 0.0 **** 0.06
32275 H 48.67047240466031 16.456677363701914 51.74650382902309 H 0.0 **** 0.06
32276 C 27.50687551612809 26.740222653184077 31.350264737456413 C 0.0 **** -0.24
32277 H 28.46616765063211 26.591029552602677 30.854066749031887 H 0.0 **** 0.06
32278 H 27.302429660694457 27.80732598413215 31.43317868159066 H 0.0 **** 0.06
32279 H 27.541504662615772 26.298998374131045 32.34667448348111 H 0.0 **** 0.06
32280 H 26.718479671625786 26.261905863764014 30.768223081585006 H 0.0 **** 0.06
32281 C 29.841323756647704 14.470692245240286 71.81739245478747 C 0.0 **** -0.24
32282 H 28.790274751235977 14.204433015370881 71.70431099529091 H 0.0 **** 0.06
32283 H 30.033629434211527 15.41363659062202 71.30493083291816 H 0.0 **** 0.06
32284 H 30.463510253501077 13.687706091882603 71.38300889138122 H 0.0 **** 0.06
32285 H 30.07797535145321 14.57681162226504 72.87591976664211 H 0.0 **** 0.06
32286 C 2.469797684984883 0.6280402677612216 36.41872185674606 C 0.0 **** -0.24
32287 H 2.3806725382644345 -0.15514057630635136 37.170341945779626 H 0.0 **** 0.06
32288 H 1.6207671007345539 1.307691019377586 36.50041879125939 H 0.0 **** 0.06
32289 H 2.4808284303309733 0.1791762625060187 35.42531567737103 H 0.0 **** 0.06
32290 H 3.3949014377016056 1.181575168415236 36.57691004001225 H 0.0 **** 0.06
32291 C 66.27270210314805 88.69384362424398 1.9591972320676518 C 0.0 **** -0.24
32292 H 67.21112488731322 88.2090691783921 2.2269223899192525 H 0.0 **** 0.06
32293 H 66.14656138626381 88.6666230631543 0.8762623199325219 H 0.0 **** 0.06
32294 H 66.28873543471573 89.72932114938098 2.297620863716503 H 0.0 **** 0.06
32295 H 65.44404137250496 88.16813908782947 2.43501190149874 H 0.0 **** 0.06
32296 C 68.9354241835027 7.91630333336434 69.47588623595618 C 0.0 **** -0.24
32297 H 68.74163055350277 7.0092965258216395 68.90225644603959 H 0.0 **** 0.06
32298 H 68.12377151751463 8.62589676781539 69.31690992501933 H 0.0 **** 0.06
32299 H 69.87536230017832 8.359960837346875 69.14618061300337 H 0.0 **** 0.06
32300 H 69.0012992648384 7.6687942389398245 70.5349939106294 H 0.0 **** 0.06
32301 C 16.340398853831463 77.83937442964259 8.48866141741459 C 0.0 **** -0.24
32302 H 15.9135860620048 78.54250275383032 9.203317799328204 H 0.0 **** 0.06
32303 H 16.68194671059548 76.94764992914975 9.015285502006662 H 0.0 **** 0.06
32304 H 17.182907145123732 78.30583334867197 7.978621013069613 H 0.0 **** 0.06
32305 H 15.581757382766323 77.56107503146893 7.756496813693701 H 0.0 **** 0.06
32306 C 70.57125425916269 63.6872958875316 67.39084106887663 C 0.0 **** -0.24
32307 H 70.76178688381054 63.04261895810357 68.24860055751356 H 0.0 **** 0.06
32308 H 69.63054951659507 63.39911100394979 66.92209121320394 H 0.0 **** 0.06
32309 H 71.3839754381591 63.582483961386195 66.67159620415214 H 0.0 **** 0.06
32310 H 70.5109935584398 64.7236300279981 67.72206084928155 H 0.0 **** 0.06
32311 C 96.66627699648734 29.11898108587502 39.52010338904634 C 0.0 **** -0.24
32312 H 96.33157678865808 30.034806756834485 40.006448384950886 H 0.0 **** 0.06
32313 H 97.67972226879175 29.257155424262407 39.14306501649733 H 0.0 **** 0.06
32314 H 95.99988261243755 28.88174847340599 38.69172816304243 H 0.0 **** 0.06
32315 H 96.65496656625598 28.300668188182783 40.24076247813278 H 0.0 **** 0.06
32316 C 12.690234280553398 8.597081123794396 17.748848502502028 C 0.0 **** -0.24
32317 H 13.17125579238774 9.549226015836043 17.52591404039657 H 0.0 **** 0.06
32318 H 11.786010017124 8.774921482377609 18.331360051241745 H 0.0 **** 0.06
32319 H 13.373839300323993 7.970336552686295 18.32121183796886 H 0.0 **** 0.06
32320 H 12.43007261591589 8.094666816072841 16.817417272228198 H 0.0 **** 0.06
32321 C 7.593672396717977 31.985659639184405 37.2416336285718 C 0.0 **** -0.24
32322 H 6.718953902510634 31.95414238816437 37.891463318265586 H 0.0 **** 0.06
32323 H 7.333858816351608 32.48435545305608 36.30755557379492 H 0.0 **** 0.06
32324 H 7.926539084419289 30.9692474522339 37.03065628068393 H 0.0 **** 0.06
32325 H 8.394351464652942 32.53473168764276 37.736825800681196 H 0.0 **** 0.06
32326 C 73.12141269304658 18.36310542133083 41.795114129888894 C 0.0 **** -0.24
32327 H 73.38285872656343 17.947169199265772 42.76875651312118 H 0.0 **** 0.06
32328 H 73.53454232923804 17.73239959039728 41.00825237537769 H 0.0 **** 0.06
32329 H 73.53147686031338 19.369048152251054 41.70861002849285 H 0.0 **** 0.06
32330 H 72.0366582096263 18.40374321114058 41.697069945187934 H 0.0 **** 0.06
32331 C 33.03869851397951 86.28000425144862 63.91282991173958 C 0.0 **** -0.24
32332 H 33.488599816720296 87.24049125832241 63.65914312603593 H 0.0 **** 0.06
32333 H 32.047131073323726 86.44369969298356 64.33470571797292 H 0.0 **** 0.06
32334 H 33.66487213000232 85.76734484505914 64.64320333667743 H 0.0 **** 0.06
32335 H 32.9552886692353 85.6697516568164 63.013841632257765 H 0.0 **** 0.06
32336 C 17.69967797284184 20.489875988957863 2.4679271974268318 C 0.0 **** -0.24
32337 H 16.70804055100467 20.125329981169898 2.7376953815958274 H 0.0 **** 0.06
32338 H 17.825417697099283 20.42984333607808 1.3863251177880755 H 0.0 **** 0.06
32339 H 18.456257042525635 19.87824242302645 2.9570179321101904 H 0.0 **** 0.06
32340 H 17.80541516913894 21.52593442824923 2.7895977486390535 H 0.0 **** 0.06
32341 C 111.84819399940169 66.6689893595152 66.0095809561389 C 0.0 **** -0.24
32342 H 112.20371878547817 65.77360953766146 66.52121910114676 H 0.0 **** 0.06
32343 H 111.36979243385808 67.33243949741825 66.73088970791483 H 0.0 **** 0.06
32344 H 111.12704508586869 66.38567201490048 65.24327626153891 H 0.0 **** 0.06
32345 H 112.69044159032921 67.18081163856061 65.54669522686609 H 0.0 **** 0.06
32346 C 79.52133669829095 57.343828812554506 57.00091084154917 C 0.0 **** -0.24
32347 H 78.4766854492774 57.13765726747809 56.77068187241059 H 0.0 **** 0.06
32348 H 79.82886233255394 58.26333574742708 56.50209984061888 H 0.0 **** 0.06
32349 H 80.1394036000737 56.5159338711745 56.65209897754505 H 0.0 **** 0.06
32350 H 79.64086525308369 57.45710577322407 58.0783961750717 H 0.0 **** 0.06
32351 C 95.49122133200095 81.22999741008744 42.6455109455286 C 0.0 **** -0.24
32352 H 94.77831288945762 81.90104461422314 43.12346651736752 H 0.0 **** 0.06
32353 H 96.14246074483555 81.80323520395285 41.98598533945376 H 0.0 **** 0.06
32354 H 94.95240550142915 80.48146722762291 42.06439265411632 H 0.0 **** 0.06
32355 H 96.091666959957 80.7340906070485 43.4091869033692 H 0.0 **** 0.06
32356 C 66.18537439651874 70.72616683885815 56.152211058108314 C 0.0 **** -0.24
32357 H 65.67336655638272 71.13863921845856 55.28183125806262 H 0.0 **** 0.06
32358 H 65.49980648719966 70.08609415320586 56.70730471937366 H 0.0 **** 0.06
32359 H 66.5232925417773 71.54058236767926 56.79378109972042 H 0.0 **** 0.06
32360 H 67.04517268242091 70.14098421832 55.824106397479994 H 0.0 **** 0.06
32361 C 65.93876175545566 82.84692619632773 2.8246548992650844 C 0.0 **** -0.24
32362 H 66.45815335262876 83.80469137008302 2.784434701742498 H 0.0 **** 0.06
32363 H 65.90209740634398 82.41188306293631 1.8260550942312932 H 0.0 **** 0.06
32364 H 64.92497234556896 82.99911840458205 3.192657419450569 H 0.0 **** 0.06
32365 H 66.47169463629342 82.17271670127036 3.4955353076975086 H 0.0 **** 0.06
32366 C 53.58806433702978 14.209138515712269 98.22000658177208 C 0.0 **** -0.24
32367 H 53.805147359494605 15.128343163024056 97.67617650626937 H 0.0 **** 0.06
32368 H 52.66884104666571 14.333921128248136 98.79234060321207 H 0.0 **** 0.06
32369 H 54.4117928821285 13.98499901347489 98.89801039983129 H 0.0 **** 0.06
32370 H 53.466306529632824 13.388566821248247 97.51229578477887 H 0.0 **** 0.06
32371 C 86.68886508802132 10.41495272786247 37.84372562503259 C 0.0 **** -0.24
32372 H 87.00122373369896 9.975734417751625 36.89634410889123 H 0.0 **** 0.06
32373 H 85.84967739508238 9.848263067921707 38.247026047309525 H 0.0 **** 0.06
32374 H 86.38542349616642 11.448866650954884 37.682184498179815 H 0.0 **** 0.06
32375 H 87.51981781188027 10.385375959006282 38.54908809924081 H 0.0 **** 0.06
32376 C 50.78434006328952 104.577803461358 104.32971321961915 C 0.0 **** -0.24
32377 H 50.41755200753372 105.60392782151882 104.36030286231409 H 0.0 **** 0.06
32378 H 51.845625080327025 104.56342987446541 104.57545868841103 H 0.0 **** 0.06
32379 H 50.63694278790485 104.17080378472482 103.32912503180367 H 0.0 **** 0.06
32380 H 50.23439357071975 103.97421226918848 105.0518329634541 H 0.0 **** 0.06
32381 C 100.95277964041242 63.23280896596729 14.433256232236833 C 0.0 **** -0.24
32382 H 101.6866593014681 63.83421281837217 14.97064947118779 H 0.0 **** 0.06
32383 H 100.84035912826377 62.268686401508596 14.930502422605585 H 0.0 **** 0.06
32384 H 101.29260083858912 63.07577627885593 13.409024451950739 H 0.0 **** 0.06
32385 H 99.99515777494639 63.75200507255966 14.4234035215277 H 0.0 **** 0.06
32386 C 5.307966084399538 10.92996435691552 108.51926035324973 C 0.0 **** -0.24
32387 H 5.671656920420048 10.001108782868371 108.07933000048916 H 0.0 **** 0.06
32388 H 4.227844734102291 10.9966720565086 108.38436257858595 H 0.0 **** 0.06
32389 H 5.788728854275291 11.776359387503604 108.02808417412257 H 0.0 **** 0.06
32390 H 5.54322626750718 10.94507075031899 109.58293735751471 H 0.0 **** 0.06
32391 C 30.8367531216037 64.62061886710711 102.08196929144407 C 0.0 **** -0.24
32392 H 30.648448583509655 64.12961465190864 103.03649410844503 H 0.0 **** 0.06
32393 H 31.200410410232436 65.63332128516964 102.25976876731067 H 0.0 **** 0.06
32394 H 29.912500650676435 64.6629490062266 101.50605011554919 H 0.0 **** 0.06
32395 H 31.586432844167376 64.05711729830375 101.52522629379101 H 0.0 **** 0.06
32396 C 99.53968730519557 112.60549383879865 59.62356391030016 C 0.0 **** -0.24
32397 H 98.82342636863359 112.2948954998712 58.86291462744157 H 0.0 **** 0.06
32398 H 99.33039417495988 112.07985057159028 60.55560037436021 H 0.0 **** 0.06
32399 H 99.45428700566941 113.68033970817899 59.78559655371566 H 0.0 **** 0.06
32400 H 100.55010463993696 112.3672361820179 59.290913187602484 H 0.0 **** 0.06
32401 C 77.54497783927644 106.56720903849099 109.48044445462185 C 0.0 **** -0.24
32402 H 77.38589886480179 105.85100940480712 110.28671324757121 H 0.0 **** 0.06
32403 H 76.67593292015894 106.57031416573454 108.82178161811345 H 0.0 **** 0.06
32404 H 78.43081835303462 106.28458754546074 108.91191033119014 H 0.0 **** 0.06
32405 H 77.6863348480752 107.56303318198533 109.90101179159868 H 0.0 **** 0.06
32406 C 99.89321335155137 107.40761919510312 59.616686482150584 C 0.0 **** -0.24
32407 H 99.0428257821354 107.73758046514342 60.21411847016981 H 0.0 **** 0.06
32408 H 100.37111351439225 108.27188745239471 59.15603458313507 H 0.0 **** 0.06
32409 H 99.54831936088519 106.72493983486777 58.840383454775264 H 0.0 **** 0.06
32410 H 100.60986153072867 106.89429594897578 60.25828764953073 H 0.0 **** 0.06
32411 C 65.22682692207823 107.91307650491069 51.0902284087403 C 0.0 **** -0.24
32412 H 66.08552253177663 108.17384103161328 50.470899620597876 H 0.0 **** 0.06
32413 H 64.34931435850339 108.45828929979828 50.74300645616805 H 0.0 **** 0.06
32414 H 65.43314291265884 108.1776524559466 52.1269509491396 H 0.0 **** 0.06
32415 H 65.04050986900117 106.84155251222435 51.01842538225095 H 0.0 **** 0.06
32416 C 31.18143585199718 31.970552282128608 23.417567614762362 C 0.0 **** -0.24
32417 H 30.562581728672114 31.29677963436751 24.009243473709915 H 0.0 **** 0.06
32418 H 30.606561049416 32.86074908130769 23.161331322732863 H 0.0 **** 0.06
32419 H 31.497045887822622 31.466844167325945 22.503699543404892 H 0.0 **** 0.06
32420 H 32.06029545875643 32.25780018210213 23.995325228036066 H 0.0 **** 0.06
32421 C 85.3575166444723 69.81644081191871 3.5036926199208267 C 0.0 **** -0.24
32422 H 84.8932119534316 70.79264200879365 3.3640188421909727 H 0.0 **** 0.06
32423 H 86.337180328037 69.94248409536107 3.964506617549276 H 0.0 **** 0.06
32424 H 85.47078810157373 69.32701248182386 2.5361411223484964 H 0.0 **** 0.06
32425 H 84.72777897976545 69.20471725863189 4.149342007267563 H 0.0 **** 0.06
32426 C 30.489641425839807 16.97790127091281 25.304876800945067 C 0.0 **** -0.24
32427 H 31.267172807109773 16.504469957511105 24.703736847648656 H 0.0 **** 0.06
32428 H 29.69384233700248 16.25849911548312 25.499108015484296 H 0.0 **** 0.06
32429 H 30.08404591696842 17.83398985337476 24.76555498515171 H 0.0 **** 0.06
32430 H 30.916240763655196 17.31321736282564 26.250419784808912 H 0.0 **** 0.06
32431 C 52.797803979395496 78.99264656625738 84.1239811981068 C 0.0 **** -0.24
32432 H 52.09554796612065 79.8228572163386 84.20236604242137 H 0.0 **** 0.06
32433 H 52.43931738018739 78.28413080228015 83.37749198834885 H 0.0 **** 0.06
32434 H 52.878909058060856 78.49365401583455 85.0896528762793 H 0.0 **** 0.06
32435 H 53.776363370450724 79.37172133370117 83.82723838297397 H 0.0 **** 0.06
32436 C 59.06755623200269 95.81656898460773 13.738562062028961 C 0.0 **** -0.24
32437 H 59.790634037159265 96.18532040352417 14.46639191448756 H 0.0 **** 0.06
32438 H 59.06245898241602 96.47219228957283 12.867148524345453 H 0.0 **** 0.06
32439 H 58.07476079104441 95.80098461439411 14.188640665824806 H 0.0 **** 0.06
32440 H 59.34376444678992 94.80760819082096 13.432239471050366 H 0.0 **** 0.06
32441 C 61.43146066288872 29.538062645254712 80.1577493648808 C 0.0 **** -0.24
32442 H 60.40220215593511 29.79713759491736 80.40366484149024 H 0.0 **** 0.06
32443 H 61.49263605385966 29.254212971914086 79.10703563788732 H 0.0 **** 0.06
32444 H 61.7526399431348 28.701686571030848 80.77956556931747 H 0.0 **** 0.06
32445 H 62.07635015982064 30.39715027674086 80.3420300065149 H 0.0 **** 0.06
32446 C 102.29987950868914 6.37858107484135 55.62398010329786 C 0.0 **** -0.24
32447 H 101.51941193548743 6.552179745077808 54.8831182667598 H 0.0 **** 0.06
32448 H 102.88160195989363 7.291451582522257 55.75821835909227 H 0.0 **** 0.06
32449 H 102.9539230545169 5.576923919463468 55.28085004244197 H 0.0 **** 0.06
32450 H 101.84355837640874 6.095267093008545 56.572425989153295 H 0.0 **** 0.06
32451 C 38.139136771055576 5.018049188163388 34.538794951646224 C 0.0 **** -0.24
32452 H 38.82117816851786 5.860053471588429 34.66214315891742 H 0.0 **** 0.06
32453 H 37.86598189428673 4.627098205679303 35.51935202814771 H 0.0 **** 0.06
32454 H 38.629464760406336 4.235719408691992 33.95893720840024 H 0.0 **** 0.06
32455 H 37.24224874257635 5.350169542687823 34.016716147788415 H 0.0 **** 0.06
32456 C 1.0971826386517431 42.24558841803895 51.2986083090654 C 0.0 **** -0.24
32457 H 1.4880113933828962 41.39978909371712 50.732174000039095 H 0.0 **** 0.06
32458 H 0.17176771231836518 42.59294213706676 50.8397521562332 H 0.0 **** 0.06
32459 H 1.8297235870788242 43.052596736011225 51.29696186970523 H 0.0 **** 0.06
32460 H 0.9001798136810244 41.93604541628693 52.32448078970481 H 0.0 **** 0.06
32461 C 86.47950647783728 59.94674362528114 86.2499502670338 C 0.0 **** -0.24
32462 H 87.30205864969827 59.975860699970276 85.53649920590124 H 0.0 **** 0.06
32463 H 85.92691586964324 60.885710435764715 86.2059231559029 H 0.0 **** 0.06
32464 H 86.87528144922362 59.80473704630544 87.2552963071924 H 0.0 **** 0.06
32465 H 85.81236338608588 59.12079946833243 86.00201928829199 H 0.0 **** 0.06
32466 C 46.76245744123787 74.83510522479264 96.99889129480775 C 0.0 **** -0.24
32467 H 46.218474891047435 75.10969563016181 96.09554172691841 H 0.0 **** 0.06
32468 H 47.09859411740126 73.80027478022504 96.91981165257204 H 0.0 **** 0.06
32469 H 46.106934620991524 74.9389487733975 97.86278924371734 H 0.0 **** 0.06
32470 H 47.62592326329525 75.4898506532416 97.11561565250324 H 0.0 **** 0.06
32471 C 87.34575385427627 25.58746280000068 34.06475017812181 C 0.0 **** -0.24
32472 H 87.48215607435407 25.57797596971291 32.983037247818544 H 0.0 **** 0.06
32473 H 86.40398604561616 26.079129949689744 34.307068475589574 H 0.0 **** 0.06
32474 H 88.1694691943114 26.129989896878897 34.528649708416 H 0.0 **** 0.06
32475 H 87.32968463509116 24.563387718055296 34.43734698461296 H 0.0 **** 0.06
32476 C 26.132188372528688 15.672114224735843 65.34049583824554 C 0.0 **** -0.24
32477 H 25.459989134097064 16.001728397099523 66.13326258862179 H 0.0 **** 0.06
32478 H 27.161898872831856 15.901897480896949 65.6191129223892 H 0.0 **** 0.06
32479 H 25.882260448152536 16.18905644955216 64.41459514424247 H 0.0 **** 0.06
32480 H 26.024866195725075 14.596643871584206 65.19705632095514 H 0.0 **** 0.06
32481 C 60.93391148344813 58.056121133126844 56.315378700928775 C 0.0 **** -0.24
32482 H 60.6806062866674 57.137599550471 55.78638820478273 H 0.0 **** 0.06
32483 H 60.205526470758116 58.231441787982654 57.10787753434364 H 0.0 **** 0.06
32484 H 60.9200096268238 58.89250796489613 55.61674132696865 H 0.0 **** 0.06
32485 H 61.929320189592886 57.96207001720304 56.75004099987048 H 0.0 **** 0.06
32486 C 35.067292339880176 36.35443968396054 74.85078889014812 C 0.0 **** -0.24
32487 H 34.3251631583577 36.638300364065245 74.1051557789703 H 0.0 **** 0.06
32488 H 34.77736597886374 36.753444155426976 75.82246912982379 H 0.0 **** 0.06
32489 H 36.040027028098756 36.75589272823515 74.56654238919629 H 0.0 **** 0.06
32490 H 35.12616692024649 35.26682338700645 74.90727824424931 H 0.0 **** 0.06
32491 C 81.33766077411252 59.968461891118295 36.179405495117464 C 0.0 **** -0.24
32492 H 81.60216774495515 60.342355387397276 35.19064108104084 H 0.0 **** 0.06
32493 H 81.73604593592205 60.64059729681247 36.940777129647586 H 0.0 **** 0.06
32494 H 81.7604114255794 58.97297083113915 36.316853139014256 H 0.0 **** 0.06
32495 H 80.25255617132467 59.91790070008324 36.270996834231994 H 0.0 **** 0.06
32496 C 81.6286898791185 86.21803329139254 69.47437990506126 C 0.0 **** -0.24
32497 H 80.56149308109713 86.0062343231562 69.40091126316986 H 0.0 **** 0.06
32498 H 82.00355648903192 85.86293512340583 70.43499938211752 H 0.0 **** 0.06
32499 H 81.79165373257163 87.29268394896306 69.39544885076097 H 0.0 **** 0.06
32500 H 82.15555450179065 85.70979934205016 68.66774478081919 H 0.0 **** 0.06
32501 C 61.86781395768361 50.48399337975939 65.94331075189837 C 0.0 **** -0.24
32502 H 62.143651737452814 50.676662074993494 66.9795055284921 H 0.0 **** 0.06
32503 H 61.93133339042157 49.41373856592221 65.74300001824076 H 0.0 **** 0.06
32504 H 62.548127444222786 51.01885822387057 65.28019569544153 H 0.0 **** 0.06
32505 H 60.847872005144495 50.826342385306866 65.76920462263536 H 0.0 **** 0.06
32506 C 74.54742415699732 25.466777033438916 95.97327335656365 C 0.0 **** -0.24
32507 H 75.00479167161294 24.586821615262267 96.42601813009657 H 0.0 **** 0.06
32508 H 74.28381046903522 25.246442870060974 94.93812208581511 H 0.0 **** 0.06
32509 H 75.2526094376804 26.296722483282082 95.99996767223962 H 0.0 **** 0.06
32510 H 73.6484967442278 25.73488547742275 96.52902851761388 H 0.0 **** 0.06
32511 C 102.65780626413385 105.68698163632885 111.17454374739783 C 0.0 **** -0.24
32512 H 103.51672166162399 105.69552599953019 111.84584900118212 H 0.0 **** 0.06
32513 H 101.74595479710763 105.84577142630778 111.75034154318836 H 0.0 **** 0.06
32514 H 102.6041551467203 104.72423928162345 110.6656624839408 H 0.0 **** 0.06
32515 H 102.76560391874199 106.48249898680797 110.43704512654529 H 0.0 **** 0.06
32516 C 6.04716330320133 69.55668255362343 12.000566248801654 C 0.0 **** -0.24
32517 H 6.749506915247139 70.32801501757655 11.683578700972053 H 0.0 **** 0.06
32518 H 5.253868560375736 70.01057301987669 12.594054458169708 H 0.0 **** 0.06
32519 H 6.570939147316096 68.81219089973888 12.599903729506956 H 0.0 **** 0.06
32520 H 5.615195887335744 69.0769654275324 11.121858070391514 H 0.0 **** 0.06
32521 C 53.44136343255593 37.99446460162349 93.63534250923487 C 0.0 **** -0.24
32522 H 53.17261896223664 37.15475790086944 92.995175029747 H 0.0 **** 0.06
32523 H 52.84030581762971 37.966497052422966 94.54419835460814 H 0.0 **** 0.06
32524 H 53.25455864066424 38.92862104468722 93.105429201715 H 0.0 **** 0.06
32525 H 54.49844544857356 37.92971846723836 93.89524056475133 H 0.0 **** 0.06
32526 C 71.21350446508296 85.3786849005183 84.03932695464587 C 0.0 **** -0.24
32527 H 71.61329812994566 84.36725068417769 84.10663371051291 H 0.0 **** 0.06
32528 H 70.13016391969288 85.350288220653 84.15674197761803 H 0.0 **** 0.06
32529 H 71.46281314284147 85.80299523247089 83.06635708958729 H 0.0 **** 0.06
32530 H 71.64908117682481 85.99472527748748 84.82586084365175 H 0.0 **** 0.06
32531 C 90.401026838214 46.17351705001914 0.7990261174091984 C 0.0 **** -0.24
32532 H 89.37136703244676 45.81615221403613 0.7962989327412373 H 0.0 **** 0.06
32533 H 90.52001624047759 46.94324570074784 0.03555588424737266 H 0.0 **** 0.06
32534 H 91.07428299552677 45.34261421361534 0.586021267166629 H 0.0 **** 0.06
32535 H 90.63801577513914 46.59158595995419 1.7774549750343027 H 0.0 **** 0.06
32536 C 107.89664014085665 11.376298832377586 11.53480108691151 C 0.0 **** -0.24
32537 H 107.32145286644872 12.235542637073163 11.18911177015152 H 0.0 **** 0.06
32538 H 107.65502001266454 10.507046818445115 10.921761825760186 H 0.0 **** 0.06
32539 H 107.6469856982267 11.167460813793376 12.575089860847754 H 0.0 **** 0.06
32540 H 108.96116808672612 11.594549724625072 11.451860329711408 H 0.0 **** 0.06
32541 C 86.39597812908468 65.52769828576862 58.64613530324821 C 0.0 **** -0.24
32542 H 87.289807244056 66.05930992177204 58.97135511569841 H 0.0 **** 0.06
32543 H 85.86071141574587 65.15006390874495 59.517107283476214 H 0.0 **** 0.06
32544 H 86.68114839956701 64.69480051353679 58.004689657637805 H 0.0 **** 0.06
32545 H 85.75054590198013 66.20965466647985 58.090442710715585 H 0.0 **** 0.06
32546 C 76.42355153520259 80.98844427184957 107.67471901244163 C 0.0 **** -0.24
32547 H 75.37364652468489 81.24703959796244 107.81340330530348 H 0.0 **** 0.06
32548 H 76.53895608709695 80.42242581657729 106.75042615718125 H 0.0 **** 0.06
32549 H 76.76413873680241 80.38554719645492 108.51609813307289 H 0.0 **** 0.06
32550 H 77.0163876281685 81.90189912796808 107.61906804150772 H 0.0 **** 0.06
32551 C 29.110824256190057 12.850539100120685 5.3887873288285135 C 0.0 **** -0.24
32552 H 29.0329849489421 12.773858902658091 4.303846025235856 H 0.0 **** 0.06
32553 H 28.751870763251247 13.828758854578979 5.710257309431739 H 0.0 **** 0.06
32554 H 30.152027009694336 12.72893083775358 5.687659630628033 H 0.0 **** 0.06
32555 H 28.50661815690765 12.070706876855553 5.851990376578726 H 0.0 **** 0.06
32556 C 92.75425346540439 59.31277802934442 77.00001124298058 C 0.0 **** -0.24
32557 H 92.58740121421408 59.27234560101822 75.923380404015 H 0.0 **** 0.06
32558 H 92.55947162501883 60.32333810868767 77.35982894808734 H 0.0 **** 0.06
32559 H 93.78758885251409 59.04229538958702 77.21648870644322 H 0.0 **** 0.06
32560 H 92.08353073373456 58.613114204576696 77.49833635563499 H 0.0 **** 0.06
32561 C 27.23983188941193 73.11640279529496 45.547386239105506 C 0.0 **** -0.24
32562 H 26.606029900370487 72.59041188321234 46.260655426239445 H 0.0 **** 0.06
32563 H 28.204819045688225 72.61401587624599 45.47974331463604 H 0.0 **** 0.06
32564 H 27.386637694154075 74.14365233937033 45.87985996124086 H 0.0 **** 0.06
32565 H 26.761216171002076 73.11650111737376 44.567402336138954 H 0.0 **** 0.06
32566 C 59.83833126821469 68.14926157793747 85.92350044604228 C 0.0 **** -0.24
32567 H 60.121152339108676 68.96267852665144 86.59130091786815 H 0.0 **** 0.06
32568 H 58.90822055598028 68.40494894227959 85.41498940484055 H 0.0 **** 0.06
32569 H 59.69748715245231 67.23646805264619 86.50169700579912 H 0.0 **** 0.06
32570 H 60.625526213875844 67.99497849136048 85.18610015623415 H 0.0 **** 0.06
32571 C 9.968569159813327 6.082733002740497 82.86771244248933 C 0.0 **** -0.24
32572 H 9.013669981098431 5.660010632453108 82.55544694311297 H 0.0 **** 0.06
32573 H 10.482697952443104 5.376911647228141 83.52089637405703 H 0.0 **** 0.06
32574 H 9.794154238653903 7.015815849651233 83.40506644389635 H 0.0 **** 0.06
32575 H 10.583284679886887 6.280353452480483 81.9890996599944 H 0.0 **** 0.06
32576 C 102.53776284814566 13.770624084322208 25.412265585091824 C 0.0 **** -0.24
32577 H 103.09460867970995 14.641000293525394 25.758465424890375 H 0.0 **** 0.06
32578 H 101.4728797378576 14.004460080331683 25.393877310840857 H 0.0 **** 0.06
32579 H 102.71447769868197 12.933803475094635 26.088405031490396 H 0.0 **** 0.06
32580 H 102.86836577423205 13.502839221348097 24.409466862714122 H 0.0 **** 0.06
32581 C 97.24522901853163 33.978186710689506 31.560589969164027 C 0.0 **** -0.24
32582 H 96.51208379985565 34.05494233063476 30.757504004688656 H 0.0 **** 0.06
32583 H 98.25037944209018 34.03416677711037 31.14138082089397 H 0.0 **** 0.06
32584 H 97.11974434486294 33.02647966457572 32.077217205598515 H 0.0 **** 0.06
32585 H 97.09869063575479 34.797016148424824 32.26526809995801 H 0.0 **** 0.06
32586 C 6.422777908749566 46.223912525120085 33.10983171042072 C 0.0 **** -0.24
32587 H 6.641527994821729 46.38351842045323 34.16601862119229 H 0.0 **** 0.06
32588 H 5.373345948412393 45.95413777380688 32.993390704351015 H 0.0 **** 0.06
32589 H 7.050057667046488 45.418646359233946 32.72790910129247 H 0.0 **** 0.06
32590 H 6.627797467245415 47.13912539459578 32.55383457703251 H 0.0 **** 0.06
32591 C 76.31467225105234 90.1307445329156 110.92682208816942 C 0.0 **** -0.24
32592 H 75.32647931774346 90.12587953275619 110.46609604312061 H 0.0 **** 0.06
32593 H 77.07760774851022 90.08657637016287 110.14838513078278 H 0.0 **** 0.06
32594 H 76.41391434555061 89.26605850968949 111.58312498074517 H 0.0 **** 0.06
32595 H 76.44031195934497 91.04463052722045 111.50748416289377 H 0.0 **** 0.06
32596 C 52.90103965781327 90.49570123668974 23.666872048502483 C 0.0 **** -0.24
32597 H 51.823340482151366 90.65352177962302 23.61001577130142 H 0.0 **** 0.06
32598 H 53.128352150275646 89.85275064557533 24.517914366753132 H 0.0 **** 0.06
32599 H 53.40216079800041 91.4549098974274 23.791421874282378 H 0.0 **** 0.06
32600 H 53.246052955424716 90.0207477672381 22.748528752953135 H 0.0 **** 0.06
32601 C 63.93521610628491 108.28325113713069 101.19668687539377 C 0.0 **** -0.24
32602 H 64.27914659545397 107.56586971040414 101.94238195180984 H 0.0 **** 0.06
32603 H 63.17880724935944 107.81627030266193 100.5654626971004 H 0.0 **** 0.06
32604 H 64.77794116619953 108.59879196607523 100.58109457316644 H 0.0 **** 0.06
32605 H 63.50604023692625 109.15116579491897 101.69763161016388 H 0.0 **** 0.06
32606 C 36.95537341284654 100.85379705350522 67.09458341404815 C 0.0 **** -0.24
32607 H 36.81687930991433 101.4892241230607 66.21995880778832 H 0.0 **** 0.06
32608 H 37.115517555081766 99.8242571919534 66.77376112543001 H 0.0 **** 0.06
32609 H 36.0661062576782 100.90501145384235 67.72427262719563 H 0.0 **** 0.06
32610 H 37.8210903176865 101.19779821925883 67.65992471737599 H 0.0 **** 0.06
32611 C 106.92764153400351 96.37602407717702 105.91662684259617 C 0.0 **** -0.24
32612 H 106.36806049014115 96.0795329947058 106.8033508349036 H 0.0 **** 0.06
32613 H 107.06741858065065 97.4578752848272 105.92034657762926 H 0.0 **** 0.06
32614 H 106.37547895216272 96.08484886413939 105.02341195578563 H 0.0 **** 0.06
32615 H 107.89984443288584 95.88403805797884 105.91972861722388 H 0.0 **** 0.06
32616 C 70.45534097782212 43.49714154926535 45.43766775722389 C 0.0 **** -0.24
32617 H 70.85590872610493 42.975228717575106 44.56807364609307 H 0.0 **** 0.06
32618 H 69.94502103993776 44.40476726785067 45.11270375513294 H 0.0 **** 0.06
32619 H 71.2707537010645 43.7595097756967 46.11142021185657 H 0.0 **** 0.06
32620 H 69.74879915241851 42.84939977779217 45.95562584097672 H 0.0 **** 0.06
32621 C 57.310837471755406 60.59211050659497 60.885631427549725 C 0.0 **** -0.24
32622 H 56.42653344233133 60.18071553475672 61.37200570030629 H 0.0 **** 0.06
32623 H 57.198038245887574 61.67102946974153 60.77733729639306 H 0.0 **** 0.06
32624 H 57.428341062033496 60.13762060441791 59.90107603733762 H 0.0 **** 0.06
32625 H 58.19084943362202 60.376898703521725 61.4910636451782 H 0.0 **** 0.06
32626 C 18.23686144621388 94.12845155084236 38.89843351112183 C 0.0 **** -0.24
32627 H 17.525823681162592 93.38171716573396 39.25446377521311 H 0.0 **** 0.06
32628 H 18.53125118476595 94.77270539407803 39.72649873700823 H 0.0 **** 0.06
32629 H 17.77093530559341 94.72862003806969 38.117047566790724 H 0.0 **** 0.06
32630 H 19.11785159627044 93.62755568526919 38.49527577442057 H 0.0 **** 0.06
32631 C 51.63373178007961 2.9343476167224196 73.403057667637 C 0.0 **** -0.24
32632 H 51.13767425360919 2.2350801447185518 72.73010275668403 H 0.0 **** 0.06
32633 H 52.70991766739034 2.763433376996403 73.37604564883011 H 0.0 **** 0.06
32634 H 51.26720498945391 2.783418127974798 74.41932775690503 H 0.0 **** 0.06
32635 H 51.418954557496896 3.955508669828461 73.08802554172203 H 0.0 **** 0.06
32636 C 101.03813823410573 91.08453647336091 51.52546290663642 C 0.0 **** -0.24
32637 H 100.73382407680893 90.45792820425498 50.68637028385865 H 0.0 **** 0.06
32638 H 100.8336781786125 90.5616742992197 52.46067342784053 H 0.0 **** 0.06
32639 H 100.47892892667707 92.01988077406355 51.50213093714734 H 0.0 **** 0.06
32640 H 102.104563146023 91.29604093808396 51.45184144625185 H 0.0 **** 0.06
32641 C 33.858025340373274 5.798690030756685 32.08782140588875 C 0.0 **** -0.24
32642 H 34.35304818547471 4.949405469191785 31.6157572503613 H 0.0 **** 0.06
32643 H 33.461313496039445 6.461909371324547 31.31911261092654 H 0.0 **** 0.06
32644 H 34.577369542554024 6.342618350393225 32.70068789863154 H 0.0 **** 0.06
32645 H 33.042642953626846 5.4402643606431464 32.71644769708246 H 0.0 **** 0.06
32646 C 15.473979053853562 26.794861952396957 88.77864686052973 C 0.0 **** -0.24
32647 H 14.794921036845974 26.898228175036152 87.93156416432322 H 0.0 **** 0.06
32648 H 15.182636073856017 25.929203421566157 89.37347705795878 H 0.0 **** 0.06
32649 H 15.42571630281158 27.692593943794634 89.39401041271552 H 0.0 **** 0.06
32650 H 16.491703651451544 26.659384143355467 88.41268676283124 H 0.0 **** 0.06
32651 C 65.9597300603979 53.51345317523712 76.99468414737223 C 0.0 **** -0.24
32652 H 66.48067429918419 54.4693620646467 76.93645434845553 H 0.0 **** 0.06
32653 H 66.37859373563467 52.92103136789143 77.80934918660967 H 0.0 **** 0.06
32654 H 66.07945690525108 52.97593147635672 76.05419901880313 H 0.0 **** 0.06
32655 H 64.89966488753166 53.68991322755781 77.18041820726467 H 0.0 **** 0.06
32656 C 66.76265780904839 69.54840479119196 37.82095908593158 C 0.0 **** -0.24
32657 H 66.20645132426395 69.4745036358834 38.75515463494645 H 0.0 **** 0.06
32658 H 66.08391978304394 69.39819371252585 36.98102709496618 H 0.0 **** 0.06
32659 H 67.54114305602175 68.78463038316184 37.80073880306159 H 0.0 **** 0.06
32660 H 67.21967603463477 70.5355473475172 37.747281809336585 H 0.0 **** 0.06
32661 C 9.96375782339274 52.791314320192356 66.56594948170374 C 0.0 **** -0.24
32662 H 9.570498946715631 51.78861517521173 66.73731267844954 H 0.0 **** 0.06
32663 H 9.13901945133388 53.502006849426834 66.51914029159724 H 0.0 **** 0.06
32664 H 10.513275929156194 52.80974899024838 65.62500560430112 H 0.0 **** 0.06
32665 H 10.632660972031019 53.06353712057313 67.38235116673917 H 0.0 **** 0.06
32666 C 5.680634984188188 10.752194349395609 104.68523150303605 C 0.0 **** -0.24
32667 H 4.72389289674345 11.27309778295114 104.72357970181656 H 0.0 **** 0.06
32668 H 6.199999289088353 11.015700199050002 103.76308083365905 H 0.0 **** 0.06
32669 H 5.509611874925483 9.675541090119566 104.71096671819072 H 0.0 **** 0.06
32670 H 6.288746053284257 11.044258770269721 105.54108877061662 H 0.0 **** 0.06
32671 C 89.83024934923847 55.185193251327405 82.7172122171288 C 0.0 **** -0.24
32672 H 90.74695836657708 54.82100444959917 82.25285512061885 H 0.0 **** 0.06
32673 H 89.06055656224402 54.41564039343518 82.65338560154072 H 0.0 **** 0.06
32674 H 89.49159104416009 56.08207182676375 82.19846105557184 H 0.0 **** 0.06
32675 H 90.02283117094359 55.42183315405873 83.76388801088609 H 0.0 **** 0.06
32676 C 86.59831068990522 67.04683952839792 102.28230860981586 C 0.0 **** -0.24
32677 H 87.64025272899025 66.72835683068757 102.23102470381704 H 0.0 **** 0.06
32678 H 85.97534508319643 66.33985176906918 101.73390585404567 H 0.0 **** 0.06
32679 H 86.49957995296884 68.03752326000728 101.83887726231467 H 0.0 **** 0.06
32680 H 86.28005038645998 67.08051012854867 103.32374943788616 H 0.0 **** 0.06
32681 C 112.257585115686 106.38427963721449 74.31868879408782 C 0.0 **** -0.24
32682 H 111.61416778136504 105.86572004516523 75.02833897679554 H 0.0 **** 0.06
32683 H 112.11429964032956 105.9626824075003 73.32271060164709 H 0.0 **** 0.06
32684 H 113.29862871912746 106.26480896774919 74.61692075300684 H 0.0 **** 0.06
32685 H 112.00249141412712 107.44453056815789 74.30477369190126 H 0.0 **** 0.06
32686 C 59.122433133443884 6.171228966603179 62.97651626108626 C 0.0 **** -0.24
32687 H 58.88811206637683 6.285913675676923 64.03492518739057 H 0.0 **** 0.06
32688 H 59.126572869649884 5.11146540940951 62.71912642685271 H 0.0 **** 0.06
32689 H 60.104682653979516 6.598971593657938 62.77401304420613 H 0.0 **** 0.06
32690 H 58.37114239728995 6.687688556078912 62.37990495059614 H 0.0 **** 0.06
32691 C 79.7324923997993 60.24952507608557 53.77340914376546 C 0.0 **** -0.24
32692 H 80.25220564629467 60.27675162963552 54.73157890585219 H 0.0 **** 0.06
32693 H 78.67229705354774 60.45275679353407 53.93026637084543 H 0.0 **** 0.06
32694 H 79.8520855034455 59.263975198413156 53.32390798367882 H 0.0 **** 0.06
32695 H 80.15355165585294 61.005319296816374 53.11112028379233 H 0.0 **** 0.06
32696 C 13.866400219476944 86.81732335111428 77.62728436606386 C 0.0 **** -0.24
32697 H 13.748975255274118 87.55493409586617 78.42214991796044 H 0.0 **** 0.06
32698 H 13.915416148834936 85.81961827906753 78.06258469033781 H 0.0 **** 0.06
32699 H 14.784950769197962 87.02056969081139 77.07597932113475 H 0.0 **** 0.06
32700 H 13.015570590363367 86.87705622001678 76.94887571749433 H 0.0 **** 0.06
32701 C 29.695173655992164 82.52262435854027 48.430890563447804 C 0.0 **** -0.24
32702 H 28.935695780798483 82.8054511544627 49.16047181739589 H 0.0 **** 0.06
32703 H 30.39709770178743 81.82544170978196 48.88816549631778 H 0.0 **** 0.06
32704 H 30.230119656742403 83.41276424208135 48.09952344668227 H 0.0 **** 0.06
32705 H 29.215796965656992 82.0463978623902 47.57447079884105 H 0.0 **** 0.06
32706 C 37.09721712167794 43.487116878286685 23.60655230651946 C 0.0 **** -0.24
32707 H 36.729684341216014 44.28485600842981 22.959895201040638 H 0.0 **** 0.06
32708 H 38.019003959653446 43.07982278803374 23.19227113585424 H 0.0 **** 0.06
32709 H 36.347797533494884 42.69825147151522 23.670372643270014 H 0.0 **** 0.06
32710 H 37.29026687713326 43.88596645490858 24.60158703090883 H 0.0 **** 0.06
32711 C 98.88022548786503 28.824311787555757 55.005719074869226 C 0.0 **** -0.24
32712 H 98.75689072846126 27.784911199324938 55.31054585465368 H 0.0 **** 0.06
32713 H 99.8273163974745 29.20491268200496 55.38840715715998 H 0.0 **** 0.06
32714 H 98.06010638021542 29.420165378482494 55.40569346102069 H 0.0 **** 0.06
32715 H 98.87704803832713 28.885280340637564 53.91729262081114 H 0.0 **** 0.06
32716 C 72.56939767132064 58.310945796215776 7.33124334780311 C 0.0 **** -0.24
32717 H 72.64248424949884 59.28202470119231 6.841259143837817 H 0.0 **** 0.06
32718 H 71.87402199069018 57.67761259501941 6.7802160169428305 H 0.0 **** 0.06
32719 H 72.20916849438265 58.445526676854854 8.350578547507155 H 0.0 **** 0.06
32720 H 73.55250789598534 57.84060133988379 7.3520705347301885 H 0.0 **** 0.06
32721 C 21.10289136550233 96.15181237091787 24.093649043059827 C 0.0 **** -0.24
32722 H 21.690259190872894 96.64904492274871 24.866075907671615 H 0.0 **** 0.06
32723 H 21.451959886137786 96.47088685918999 23.111637320638295 H 0.0 **** 0.06
32724 H 20.052175551997948 96.41742666155264 24.2097081363479 H 0.0 **** 0.06
32725 H 21.218121827083735 95.07256334571082 24.18815199943421 H 0.0 **** 0.06
32726 C 47.96525470978605 30.620470326918053 2.7932272209742237 C 0.0 **** -0.24
32727 H 48.31515891580409 30.178499869834695 1.8598282695403743 H 0.0 **** 0.06
32728 H 48.81896509312347 30.821812285333166 3.4417667281922917 H 0.0 **** 0.06
32729 H 47.28621291075436 29.92795581658868 3.290567419684306 H 0.0 **** 0.06
32730 H 47.44293036312331 31.552656427789884 2.580575679230815 H 0.0 **** 0.06
32731 C 7.705962396665427 37.762736525560456 21.79647415130961 C 0.0 **** -0.24
32732 H 7.142529289065465 38.63733879744598 22.122477864246264 H 0.0 **** 0.06
32733 H 7.031258410300154 36.91283862598635 21.697633691588038 H 0.0 **** 0.06
32734 H 8.476127490367759 37.532847767883254 22.53302510024392 H 0.0 **** 0.06
32735 H 8.173398996407059 37.9713447380534 20.83417117140189 H 0.0 **** 0.06
32736 C 108.86559439832229 1.3560856535195 50.73705714212498 C 0.0 **** -0.24
32737 H 107.90696976523287 1.0602508041153698 50.309397211283326 H 0.0 **** 0.06
32738 H 108.88810922488994 1.0948723493657866 51.79497068854078 H 0.0 **** 0.06
32739 H 108.99501833050213 2.432806135622627 50.62502648234245 H 0.0 **** 0.06
32740 H 109.6702888634209 0.8377147378778318 50.21594603678517 H 0.0 **** 0.06
32741 C 83.28668395732149 75.13852946463234 43.18385411114385 C 0.0 **** -0.24
32742 H 84.27318077826732 75.57227263890704 43.35068435320618 H 0.0 **** 0.06
32743 H 82.94746913473028 74.6474396810955 44.09620522103492 H 0.0 **** 0.06
32744 H 83.34246136326203 74.40797943339959 42.376532644950586 H 0.0 **** 0.06
32745 H 82.58422283554285 75.92697384688597 42.91315273755188 H 0.0 **** 0.06
32746 C 71.45262539553926 88.30001057756044 95.97272461643749 C 0.0 **** -0.24
32747 H 72.37968335040642 88.87008545418271 95.91434176253594 H 0.0 **** 0.06
32748 H 71.16679858107767 87.96932481624913 94.97405381702228 H 0.0 **** 0.06
32749 H 70.66526616474209 88.92908235472694 96.38799745614543 H 0.0 **** 0.06
32750 H 71.6009592844328 87.43164597878456 96.61485963917724 H 0.0 **** 0.06
32751 C 88.00227894898705 8.332655461193696 34.636548920218644 C 0.0 **** -0.24
32752 H 87.69394928858804 7.430377278994882 34.107698908536804 H 0.0 **** 0.06
32753 H 89.08542211931317 8.436687656489397 34.57572505152709 H 0.0 **** 0.06
32754 H 87.70174071376707 8.261920190571601 35.681053386005814 H 0.0 **** 0.06
32755 H 87.52701321412357 9.201102427316243 34.1795425908591 H 0.0 **** 0.06
32756 C 31.600278462444308 24.45169225399161 103.33874458462407 C 0.0 **** -0.24
32757 H 31.474435129040636 25.208310791904097 102.56340961843298 H 0.0 **** 0.06
32758 H 31.197690636129586 23.501755677177073 102.98800693886807 H 0.0 **** 0.06
32759 H 31.068972306825295 24.762203572016915 104.23870453377896 H 0.0 **** 0.06
32760 H 32.66095538446764 24.33632892739996 103.56398049395813 H 0.0 **** 0.06
32761 C 29.58977882253697 112.00396083439722 84.22556919273694 C 0.0 **** -0.24
32762 H 29.590945171888023 112.20634619115685 83.15466948742966 H 0.0 **** 0.06
32763 H 29.44464620398159 112.9368302342454 84.771598195958 H 0.0 **** 0.06
32764 H 30.54400755920821 111.55981741543047 84.51201924322896 H 0.0 **** 0.06
32765 H 28.781746484682586 111.31294128711318 84.4641254174083 H 0.0 **** 0.06
32766 C 38.23696717642366 30.03980811571816 6.88539819441273 C 0.0 **** -0.24
32767 H 38.196202179447255 29.18688741254988 6.209270413810486 H 0.0 **** 0.06
32768 H 38.68113580667506 29.731474770258416 7.832622692630352 H 0.0 **** 0.06
32769 H 37.22812177196715 30.41268567801191 7.062171100922569 H 0.0 **** 0.06
32770 H 38.842985641430005 30.828309510028276 6.438813846786246 H 0.0 **** 0.06
32771 C 93.88125416103532 0.34369290157050614 81.99900272641105 C 0.0 **** -0.24
32772 H 94.79290286161302 0.5688312014092674 82.55286715759408 H 0.0 **** 0.06
32773 H 93.0699647262042 0.976619409697463 82.36191733560315 H 0.0 **** 0.06
32774 H 93.61811025904456 -0.7041091280626404 82.14499109153485 H 0.0 **** 0.06
32775 H 94.04423195834227 0.5339173417733889 80.93862815338508 H 0.0 **** 0.06
32776 C 17.161198207368273 0.5845527613363428 42.45252137486996 C 0.0 **** -0.24
32777 H 18.04008945366511 0.8778643604729544 43.02645940326569 H 0.0 **** 0.06
32778 H 16.54448238551291 1.462331788385364 42.25818663095905 H 0.0 **** 0.06
32779 H 16.58423320139131 -0.14592555392483053 43.02058938497923 H 0.0 **** 0.06
32780 H 17.475407836560816 0.14300841375067552 41.50679821953161 H 0.0 **** 0.06
32781 C 32.24838064791967 28.33682875841859 33.20450949809605 C 0.0 **** -0.24
32782 H 31.72682341062213 27.6785084007781 32.51103300723008 H 0.0 **** 0.06
32783 H 32.97869674000294 27.760442540789825 33.773269358122384 H 0.0 **** 0.06
32784 H 31.528929494529926 28.787100937608244 33.88893365847728 H 0.0 **** 0.06
32785 H 32.75925314144011 29.121790887857628 32.64696745023572 H 0.0 **** 0.06
32786 C 96.35185095361985 110.26231478366662 28.51620050223005 C 0.0 **** -0.24
32787 H 96.94301953463085 110.52053128734116 27.63787749349484 H 0.0 **** 0.06
32788 H 96.31785687751682 111.11506483712192 29.194151924189526 H 0.0 **** 0.06
32789 H 96.80785703102637 109.41199048263822 29.02279442577398 H 0.0 **** 0.06
32790 H 95.33966717059158 110.00160216463458 28.20797773454362 H 0.0 **** 0.06
32791 C 80.01183572536206 57.32069574484194 80.54325482713875 C 0.0 **** -0.24
32792 H 80.22769821193629 58.13183347843449 79.84872240424238 H 0.0 **** 0.06
32793 H 80.06800570498876 57.694327122100844 81.56606368605674 H 0.0 **** 0.06
32794 H 80.74216173159499 56.522534567525156 80.40741634223116 H 0.0 **** 0.06
32795 H 79.01049372487478 56.93555977501876 80.35171149019254 H 0.0 **** 0.06
32796 C 98.40746471736804 78.73683052445679 0.9853779440428525 C 0.0 **** -0.24
32797 H 98.2660628725715 78.99199302135571 -0.06522286091804119 H 0.0 **** 0.06
32798 H 97.51895941604946 78.22728098935349 1.3579836069190634 H 0.0 **** 0.06
32799 H 98.5731948922311 79.64720168318863 1.5614154861007705 H 0.0 **** 0.06
32800 H 99.27180697117282 78.08068128674199 1.0863631888279883 H 0.0 **** 0.06
32801 C 50.236006985277584 77.40542420632758 34.04551640033645 C 0.0 **** -0.24
32802 H 49.550774390941 78.22774089996523 33.84054831179441 H 0.0 **** 0.06
32803 H 49.702988074194195 76.60898366247761 34.565807423218246 H 0.0 **** 0.06
32804 H 51.05521052778511 77.76178807381672 34.669596290356424 H 0.0 **** 0.06
32805 H 50.63584885835343 77.02165642024244 33.10630278298487 H 0.0 **** 0.06
32806 C 22.808253036086114 38.17510158573158 91.53986372642137 C 0.0 **** -0.24
32807 H 22.446902352002354 38.160705129917886 90.51144025633965 H 0.0 **** 0.06
32808 H 23.686552168243793 37.536318991353895 91.62502675845315 H 0.0 **** 0.06
32809 H 22.025945921919885 37.807430346402384 92.20508468183368 H 0.0 **** 0.06
32810 H 23.070663270241965 39.19547943729229 91.81819314353996 H 0.0 **** 0.06
32811 C 94.83000690726473 95.52503379104849 0.8554187668175199 C 0.0 **** -0.24
32812 H 95.38602362340279 94.58891753172088 0.8212856924120953 H 0.0 **** 0.06
32813 H 95.39584726400486 96.30352734900154 0.34221320763403895 H 0.0 **** 0.06
32814 H 94.67103812441076 95.8162397143386 1.8936371535129197 H 0.0 **** 0.06
32815 H 93.86603157778481 95.39230593675282 0.36424438699208306 H 0.0 **** 0.06
32816 C 13.182123427690271 101.09422666005676 111.97042587393199 C 0.0 **** -0.24
32817 H 13.32409092966418 101.66854320446521 111.05507779208259 H 0.0 **** 0.06
32818 H 13.370776469863983 100.0396522220403 111.77009824316065 H 0.0 **** 0.06
32819 H 12.158503733839666 101.22002825645248 112.32353928675408 H 0.0 **** 0.06
32820 H 13.875838074969295 101.44917354087903 112.7334856148465 H 0.0 **** 0.06
32821 C 95.69894591766257 11.798144282511203 35.079175970583606 C 0.0 **** -0.24
32822 H 95.79786570507773 11.229982532590867 36.00429191466924 H 0.0 **** 0.06
32823 H 96.3384391608416 11.358218378057728 34.313074114607275 H 0.0 **** 0.06
32824 H 95.9987162105395 12.830966022566486 35.254145576916045 H 0.0 **** 0.06
32825 H 94.66170986615398 11.771386397847465 34.745107440257556 H 0.0 **** 0.06
32826 C 106.14076347090526 103.19214644883425 105.1578115044579 C 0.0 **** -0.24
32827 H 105.70572293777576 102.71244331989115 106.03445568525211 H 0.0 **** 0.06
32828 H 106.34272340522779 104.24063944201663 105.38075794621201 H 0.0 **** 0.06
32829 H 105.4417963230768 103.12629773068582 104.32411716423982 H 0.0 **** 0.06
32830 H 107.07122258475115 102.69054670204764 104.89273813001219 H 0.0 **** 0.06
32831 C 4.268882806063331 46.90706160638547 20.46395224239143 C 0.0 **** -0.24
32832 H 3.7020963209886304 47.70178224839606 19.978284037571598 H 0.0 **** 0.06
32833 H 4.538786708190813 47.21833112535688 21.47343953776567 H 0.0 **** 0.06
32834 H 5.1743226177311925 46.70529743772596 19.89147135486951 H 0.0 **** 0.06
32835 H 3.661081335596961 46.00399171189531 20.512310097405816 H 0.0 **** 0.06
32836 C 95.03485942689443 107.45842567388567 86.79523380382827 C 0.0 **** -0.24
32837 H 94.24694456929984 107.21796875888242 87.50965881155014 H 0.0 **** 0.06
32838 H 95.91627492212436 106.85354496687677 87.00835219795567 H 0.0 **** 0.06
32839 H 95.29041718419526 108.51454141871204 86.87857724674012 H 0.0 **** 0.06
32840 H 94.68460301542723 107.24835853469722 85.7845906230213 H 0.0 **** 0.06
32841 C 14.054332284126787 12.852586775087829 65.52966925000695 C 0.0 **** -0.24
32842 H 13.603299170924828 13.237726125180416 64.61531910683698 H 0.0 **** 0.06
32843 H 14.491838134040876 11.873256827375414 65.33441837564058 H 0.0 **** 0.06
32844 H 13.28953721745549 12.761378230676243 66.3016627471477 H 0.0 **** 0.06
32845 H 14.831713761176843 13.538053549147037 65.86694468843163 H 0.0 **** 0.06
32846 C 14.735981807683572 92.57223893533819 3.106758428371478 C 0.0 **** -0.24
32847 H 15.296457955099896 91.8642950729305 3.718578216259459 H 0.0 **** 0.06
32848 H 14.81228373285461 92.28409255960395 2.057643491432117 H 0.0 **** 0.06
32849 H 15.147079822486717 93.57252294156271 3.241059175496531 H 0.0 **** 0.06
32850 H 13.689265737342168 92.56490282042151 3.411087279332918 H 0.0 **** 0.06
32851 C 99.70341438024661 64.95963930159607 52.48156715660002 C 0.0 **** -0.24
32852 H 99.69691064628046 63.91448062186807 52.17324526478819 H 0.0 **** 0.06
32853 H 100.0509899765623 65.58053208277349 51.65593482790422 H 0.0 **** 0.06
32854 H 100.37146680903666 65.08233377756193 53.335156937006616 H 0.0 **** 0.06
32855 H 98.69520525479211 65.26115972523243 52.76420320653057 H 0.0 **** 0.06
32856 C 27.487785059967486 39.98443932313097 5.7926224059654885 C 0.0 **** -0.24
32857 H 28.264778287999462 39.51258613224297 5.190870380330537 H 0.0 **** 0.06
32858 H 27.70124472162061 41.0499942199848 5.889060196406518 H 0.0 **** 0.06
32859 H 27.466245350375985 39.52687160116227 6.781745864290443 H 0.0 **** 0.06
32860 H 26.52163438038489 39.849055196904374 5.3079149541529915 H 0.0 **** 0.06
32861 C 18.196950282817102 0.1698979114982393 9.764276710727334 C 0.0 **** -0.24
32862 H 17.283993277765187 -0.2840594865953534 10.149094267258189 H 0.0 **** 0.06
32863 H 18.049920105045334 1.243617629147323 9.651403174841013 H 0.0 **** 0.06
32864 H 18.440358479642303 -0.2684820976277251 8.79685706913426 H 0.0 **** 0.06
32865 H 19.0144121623166 -0.01350516540158253 10.46178641929773 H 0.0 **** 0.06
32866 C 53.038998768450256 8.273065463068356 41.23942633209586 C 0.0 **** -0.24
32867 H 53.02523232920004 9.154842387910335 41.8810620575658 H 0.0 **** 0.06
32868 H 53.13754838990519 8.58207872388532 40.198970592323775 H 0.0 **** 0.06
32869 H 52.110352920306696 7.715801843849881 41.36756534889679 H 0.0 **** 0.06
32870 H 53.88302020450311 7.639185132593592 41.51179546858128 H 0.0 **** 0.06
32871 C 74.38577615999375 39.28543926153827 40.70030077254877 C 0.0 **** -0.24
32872 H 74.47031299567263 38.23958635894405 40.40107384401696 H 0.0 **** 0.06
32873 H 73.93806567704519 39.34323271901076 41.692901741061235 H 0.0 **** 0.06
32874 H 73.75655579803583 39.81674848355897 39.98650415282805 H 0.0 **** 0.06
32875 H 75.37621636744066 39.73804844486341 40.72053456835033 H 0.0 **** 0.06
32876 C 92.28620275899479 19.080536514993458 28.520788295394738 C 0.0 **** -0.24
32877 H 91.64665280486409 18.286406801914552 28.906362228352762 H 0.0 **** 0.06
32878 H 92.36500587987305 18.98922980520423 27.43767495012404 H 0.0 **** 0.06
32879 H 93.27787435460405 18.99613208928288 28.966186740892695 H 0.0 **** 0.06
32880 H 91.85540666437507 20.049369949750773 28.774652279591955 H 0.0 **** 0.06
32881 C 47.50085851552816 56.49273163757919 77.40504640600088 C 0.0 **** -0.24
32882 H 46.54928032216189 56.380167480284676 77.92476715049122 H 0.0 **** 0.06
32883 H 47.5836716296137 55.72751923012742 76.6322511967627 H 0.0 **** 0.06
32884 H 48.31899758167071 56.38131394040944 78.11687712721715 H 0.0 **** 0.06
32885 H 47.5501206987287 57.480155665283455 76.94620938843545 H 0.0 **** 0.06
32886 C 9.350080785969084 80.88125414389748 32.79027787130265 C 0.0 **** -0.24
32887 H 8.962812244028697 80.70222389831886 33.79401674059156 H 0.0 **** 0.06
32888 H 8.655161646383107 81.51627595977172 32.24109752449098 H 0.0 **** 0.06
32889 H 9.462974682270954 79.93021788258866 32.27046795537804 H 0.0 **** 0.06
32890 H 10.319149086027352 81.37514428037719 32.858289096408214 H 0.0 **** 0.06
32891 C 91.7472274392808 73.9273140938148 56.09217386731126 C 0.0 **** -0.24
32892 H 92.10123060189318 73.50153448178386 55.15392986663309 H 0.0 **** 0.06
32893 H 90.93622747231237 73.31422697577995 56.486181063594245 H 0.0 **** 0.06
32894 H 91.38554460441793 74.9410833924407 55.91794766112642 H 0.0 **** 0.06
32895 H 92.56556781549239 73.95196521655151 56.81146498771298 H 0.0 **** 0.06
32896 C 101.33500633521928 106.87569216416426 22.731214842710585 C 0.0 **** -0.24
32897 H 101.39821116188759 105.81104605783835 22.504555958637297 H 0.0 **** 0.06
32898 H 102.32385105468754 107.2483680606488 23.00165760050038 H 0.0 **** 0.06
32899 H 100.64774201168868 107.03011545886184 23.563403295034504 H 0.0 **** 0.06
32900 H 100.97208139136191 107.4116759319176 21.8549322368674 H 0.0 **** 0.06
32901 C 45.792338352017566 11.08231686065173 90.2400296712768 C 0.0 **** -0.24
32902 H 46.703459656431846 11.25416398650502 89.6660314282903 H 0.0 **** 0.06
32903 H 45.238528939769026 12.015945846984067 90.33145922058762 H 0.0 **** 0.06
32904 H 46.05336453751664 10.714664852154598 91.23315292927364 H 0.0 **** 0.06
32905 H 45.17657871370511 10.342182633498908 89.72934996395892 H 0.0 **** 0.06
32906 C 18.638609422764887 26.988389367332573 95.19401942346394 C 0.0 **** -0.24
32907 H 18.336361571985776 26.64080171639243 96.18194373983826 H 0.0 **** 0.06
32908 H 19.032456419908243 28.00264858518068 95.27185433371272 H 0.0 **** 0.06
32909 H 17.777209008875474 26.98333867271758 94.527149023345 H 0.0 **** 0.06
32910 H 19.410244249387404 26.328572607197174 94.79667453700802 H 0.0 **** 0.06
32911 C 25.025011341454785 24.093249346018297 14.157349310074324 C 0.0 **** -0.24
32912 H 26.014982338556877 23.751138715580566 14.458173347270531 H 0.0 **** 0.06
32913 H 24.706799386421437 24.903673313595334 14.813140842870965 H 0.0 **** 0.06
32914 H 24.31706092075548 23.268005682490127 14.229767893340139 H 0.0 **** 0.06
32915 H 25.06173265499723 24.45146157156995 13.12859086857219 H 0.0 **** 0.06
32916 C 19.741695583053016 29.626412809128794 108.05933408704891 C 0.0 **** -0.24
32917 H 20.38665290902419 30.235053877083004 108.6931254469948 H 0.0 **** 0.06
32918 H 19.156199276887392 30.273928110874124 107.40669376146863 H 0.0 **** 0.06
32919 H 19.07027239219247 29.036562723909782 108.68342716693226 H 0.0 **** 0.06
32920 H 20.354664556820822 28.958216527467982 107.45344612299277 H 0.0 **** 0.06
32921 C 84.05135923769845 77.14772805008857 107.47088469439272 C 0.0 **** -0.24
32922 H 84.66223947522892 76.79128504432884 106.64153488543572 H 0.0 **** 0.06
32923 H 83.39802706936663 77.94844131633204 107.12227916854914 H 0.0 **** 0.06
32924 H 84.69915543392176 77.52382903719013 108.2622850266377 H 0.0 **** 0.06
32925 H 83.44696458090982 76.32610595542741 107.85584787137553 H 0.0 **** 0.06
32926 C 97.27078285015313 111.06409421433712 70.7503437074783 C 0.0 **** -0.24
32927 H 96.42406797133737 111.21632098811888 70.08092805222455 H 0.0 **** 0.06
32928 H 97.64719094952079 112.03098218463833 71.08496888515415 H 0.0 **** 0.06
32929 H 98.06033418211814 110.5299189582695 70.22125211613866 H 0.0 **** 0.06
32930 H 96.95143957059935 110.48015837610441 71.6128175469199 H 0.0 **** 0.06
32931 C 48.5470853902373 55.34096203838206 57.25061916410806 C 0.0 **** -0.24
32932 H 48.517339857801545 54.30789407381937 56.902890496646364 H 0.0 **** 0.06
32933 H 49.261589698671344 55.905519963616115 56.64949648685274 H 0.0 **** 0.06
32934 H 48.85444610167605 55.363514408828166 58.29622959990405 H 0.0 **** 0.06
32935 H 47.55744774329676 55.786229064722335 57.15177102908768 H 0.0 **** 0.06
32936 C 28.466477990041795 61.44641059847399 9.473842440224587 C 0.0 **** -0.24
32937 H 28.181394084221274 60.40253508229134 9.60914036481735 H 0.0 **** 0.06
32938 H 28.74436417643151 61.61476095303257 8.43331092957878 H 0.0 **** 0.06
32939 H 29.31337856134239 61.677904105539966 10.118757544125884 H 0.0 **** 0.06
32940 H 27.624447088042942 62.08857062507903 9.734439673008367 H 0.0 **** 0.06
32941 C 103.0941138871467 18.220753433910232 16.23440524104143 C 0.0 **** -0.24
32942 H 102.85285298926638 18.660127911013006 17.20330396979159 H 0.0 **** 0.06
32943 H 103.27226924949363 19.0155749498156 15.509543281792503 H 0.0 **** 0.06
32944 H 102.26121681632023 17.602807249138323 15.89910482931839 H 0.0 **** 0.06
32945 H 103.9892004527683 17.605425895280433 16.32748838092951 H 0.0 **** 0.06
32946 C 40.10177711433295 112.17570758215173 68.22472953761934 C 0.0 **** -0.24
32947 H 39.14961077611679 111.65464140412918 68.3159797369351 H 0.0 **** 0.06
32948 H 40.0032246882962 113.18499367354286 68.62412706222511 H 0.0 **** 0.06
32949 H 40.38873829833466 112.22699472291845 67.17467512532482 H 0.0 **** 0.06
32950 H 40.866877717128034 111.6361697277984 68.78369412279062 H 0.0 **** 0.06
32951 C 1.48388899940241 99.69184628290421 18.129176235701408 C 0.0 **** -0.24
32952 H 2.2746716649487837 99.80594005707252 18.86983925632792 H 0.0 **** 0.06
32953 H 0.8219735207772771 100.55744704975379 18.167250419663926 H 0.0 **** 0.06
32954 H 0.9118817989154593 98.78828056174933 18.343897524990076 H 0.0 **** 0.06
32955 H 1.9247879133664014 99.61491652222253 17.135137822241166 H 0.0 **** 0.06
32956 C 61.23995070208986 74.19523395530089 78.36914150354454 C 0.0 **** -0.24
32957 H 61.511336434393286 73.13947179230712 78.36080823120517 H 0.0 **** 0.06
32958 H 60.16891607770441 74.2969205751784 78.19767143682293 H 0.0 **** 0.06
32959 H 61.78565039341413 74.71670647256337 77.58296936430622 H 0.0 **** 0.06
32960 H 61.49599513270448 74.62789857181912 79.33638448284222 H 0.0 **** 0.06
32961 C 93.94307572781852 68.74916749720137 43.74645459370914 C 0.0 **** -0.24
32962 H 94.48007795654999 67.98253494303233 44.30398706536708 H 0.0 **** 0.06
32963 H 92.99954874966488 68.96777422256213 44.24653791832342 H 0.0 **** 0.06
32964 H 93.74373922392107 68.39030632608461 42.735846308247005 H 0.0 **** 0.06
32965 H 94.5486292944544 69.65366395825544 43.69739983595545 H 0.0 **** 0.06
32966 C 2.0864285316851916 25.37420014080891 70.69063067523334 C 0.0 **** -0.24
32967 H 3.0632136158007004 25.444541595106642 71.16814539836946 H 0.0 **** 0.06
32968 H 1.7948048214725283 26.3549260394621 70.31431467165686 H 0.0 **** 0.06
32969 H 1.3510440298138153 25.030623999520003 71.41876082200164 H 0.0 **** 0.06
32970 H 2.1357634218089654 24.66692206908843 69.86334285974118 H 0.0 **** 0.06
32971 C 31.256942812819617 81.64013813558401 59.22252308600559 C 0.0 **** -0.24
32972 H 31.036176026693262 81.86594686294137 60.26528325799672 H 0.0 **** 0.06
32973 H 31.603425988110445 80.60981900363632 59.13883130499264 H 0.0 **** 0.06
32974 H 32.03339245611951 82.31495699178032 58.861274017524174 H 0.0 **** 0.06
32975 H 30.355300408841806 81.76983814235714 58.623851825490384 H 0.0 **** 0.06
32976 C 20.68470258370951 16.9875554101053 84.0286440336472 C 0.0 **** -0.24
32977 H 20.034544882696082 17.015484089575125 84.90288217279357 H 0.0 **** 0.06
32978 H 20.515374661442905 17.878145889869415 83.42220596904647 H 0.0 **** 0.06
32979 H 20.462804760738152 16.097688375940606 83.43868092694916 H 0.0 **** 0.06
32980 H 21.72588271011918 16.959881804181464 84.35077216525002 H 0.0 **** 0.06
32981 C 40.287025361978635 55.31301450662863 69.97079513336851 C 0.0 **** -0.24
32982 H 39.21931184201293 55.12920051559837 69.85084243202488 H 0.0 **** 0.06
32983 H 40.7086831948821 55.64097581995043 69.0202608193537 H 0.0 **** 0.06
32984 H 40.77996072059426 54.39365618945817 70.2891840310767 H 0.0 **** 0.06
32985 H 40.440330115362315 56.086142411190735 70.72368508799207 H 0.0 **** 0.06
32986 C 36.84711708414264 112.1374713763546 37.22937053906507 C 0.0 **** -0.24
32987 H 36.99646265222279 113.13160911646699 37.65189095677868 H 0.0 **** 0.06
32988 H 36.93434218463253 111.39147583390073 38.01923116995155 H 0.0 **** 0.06
32989 H 37.60156429211051 111.95048716711902 36.466437646322404 H 0.0 **** 0.06
32990 H 35.85464159069221 112.07932981634711 36.78158890853964 H 0.0 **** 0.06
32991 C 58.34257071890733 108.77845612471532 57.50088213446858 C 0.0 **** -0.24
32992 H 57.65422409957884 108.19543741635312 56.888487209340155 H 0.0 **** 0.06
32993 H 58.49333235688527 108.27554888768955 58.45636769544615 H 0.0 **** 0.06
32994 H 57.92318965289805 109.76958220302632 57.67349442434528 H 0.0 **** 0.06
32995 H 59.29750323036068 108.87307524518263 56.98382554603691 H 0.0 **** 0.06
32996 C 89.93802082205289 32.07809716969365 86.31914210908619 C 0.0 **** -0.24
32997 H 90.30077794953402 32.988938074640316 85.84161559941603 H 0.0 **** 0.06
32998 H 89.05720007429247 32.30969789991718 86.91872308913199 H 0.0 **** 0.06
32999 H 90.71698871299367 31.668589351919024 86.96103358867734 H 0.0 **** 0.06
33000 H 89.6742630740278 31.347432076492737 85.55435274249848 H 0.0 **** 0.06
33001 C 15.166556821651142 5.183657167837708 17.358792779500817 C 0.0 **** -0.24
33002 H 14.400328218140402 5.568439243984315 16.686235840379936 H 0.0 **** 0.06
33003 H 14.90884805058056 5.439032860788117 18.387400539077646 H 0.0 **** 0.06
33004 H 16.129322863702015 5.627429452168968 17.103831722757604 H 0.0 **** 0.06
33005 H 15.22798267307195 4.10084305726501 17.256872350317025 H 0.0 **** 0.06
33006 C 59.196324362941084 43.461851675261016 89.9520006782314 C 0.0 **** -0.24
33007 H 59.067447469727256 44.5361472599817 90.08864695851395 H 0.0 **** 0.06
33008 H 59.450958009287774 43.25611648672157 88.91202608111735 H 0.0 **** 0.06
33009 H 58.26997869856723 42.94870293116128 90.20827086780571 H 0.0 **** 0.06
33010 H 59.999197163432086 43.10827046563384 90.59971747143402 H 0.0 **** 0.06
33011 C 89.0755027590227 42.312011634996345 109.96964254580523 C 0.0 **** -0.24
33012 H 88.27882114226091 43.049660009451266 110.06666148543064 H 0.0 **** 0.06
33013 H 90.02131174645228 42.75606866481993 110.27948134709003 H 0.0 **** 0.06
33014 H 89.14687166354372 41.98954188441162 108.9304345868614 H 0.0 **** 0.06
33015 H 88.85215790385561 41.452713074973566 110.60293198980419 H 0.0 **** 0.06
33016 C 101.02412296543682 27.428542151770557 78.32223536763155 C 0.0 **** -0.24
33017 H 100.03179053672824 27.139319513964757 78.66701204570333 H 0.0 **** 0.06
33018 H 101.40919036127974 28.228523338720443 78.95454351126077 H 0.0 **** 0.06
33019 H 100.96340820330585 27.77741540544978 77.29095140671598 H 0.0 **** 0.06
33020 H 101.69227868340428 26.568142660554436 78.37581825822491 H 0.0 **** 0.06
33021 C 26.349160705716535 107.41283908808725 9.960313642672475 C 0.0 **** -0.24
33022 H 25.38508345244168 106.91085146982705 10.041534739781525 H 0.0 **** 0.06
33023 H 27.135491616744503 106.67017299577111 9.819870600985169 H 0.0 **** 0.06
33024 H 26.541932881238054 107.9774876644361 10.8729884545116 H 0.0 **** 0.06
33025 H 26.335029060920768 108.09308974391213 9.108895580003491 H 0.0 **** 0.06
33026 C 106.04597976229076 24.229182181038567 3.4271792090826825 C 0.0 **** -0.24
33027 H 105.71644921436445 24.774255562689774 4.311580703103267 H 0.0 **** 0.06
33028 H 106.69273972427811 23.40487407390779 3.7301877411922337 H 0.0 **** 0.06
33029 H 106.59766690190969 24.901732911678835 2.770680785583071 H 0.0 **** 0.06
33030 H 105.1788689490266 23.83470886606287 2.898988013816055 H 0.0 **** 0.06
33031 C 7.491370606086701 73.00371147416371 29.979625375104263 C 0.0 **** -0.24
33032 H 7.1206762883164085 72.55274008341371 29.05915380322267 H 0.0 **** 0.06
33033 H 6.943878060055761 73.92493856709336 30.179087025791375 H 0.0 **** 0.06
33034 H 8.553324208110396 73.22899491173382 29.871309031415137 H 0.0 **** 0.06
33035 H 7.350251908604196 72.30995406121497 30.80727412180505 H 0.0 **** 0.06
33036 C 24.298366089845047 8.234385330437538 108.54303682121775 C 0.0 **** -0.24
33037 H 25.314521635907425 7.849324754525176 108.45175314412796 H 0.0 **** 0.06
33038 H 23.651782639537004 7.458384273761142 108.95452883203006 H 0.0 **** 0.06
33039 H 23.932804662888756 8.52884759866523 107.55987450495445 H 0.0 **** 0.06
33040 H 24.295767691753 9.098984390299677 109.20605872803154 H 0.0 **** 0.06
33041 C 24.130904252725927 80.38815671618079 30.343122887705135 C 0.0 **** -0.24
33042 H 23.340265022082136 81.10565984651501 30.55869458720713 H 0.0 **** 0.06
33043 H 25.0364760338163 80.92177064474461 30.05274835019668 H 0.0 **** 0.06
33044 H 23.81633267672271 79.73509309528811 29.52846647078792 H 0.0 **** 0.06
33045 H 24.331043167028085 79.78953898828229 31.231385563502272 H 0.0 **** 0.06
33046 C 30.164194735719803 93.74408466565751 17.16211455090016 C 0.0 **** -0.24
33047 H 29.684834401039637 94.5322640294275 16.581638589305847 H 0.0 **** 0.06
33048 H 30.324273567507845 92.87284225849655 16.52699895284523 H 0.0 **** 0.06
33049 H 29.524115074319695 93.47112648978322 18.00137450898583 H 0.0 **** 0.06
33050 H 31.122915672260802 94.10205163708895 17.53754924636299 H 0.0 **** 0.06
33051 C 100.86502841124454 42.746928793089864 68.11137563151419 C 0.0 **** -0.24
33052 H 100.58583282006612 43.42319475069539 67.30306467813921 H 0.0 **** 0.06
33053 H 101.41326972489989 43.29950585355809 68.87456332721007 H 0.0 **** 0.06
33054 H 101.49401223334812 41.94911613915781 67.71720856552517 H 0.0 **** 0.06
33055 H 99.96505711520709 42.317007252126075 68.55064605395413 H 0.0 **** 0.06
33056 C 82.84948936678902 42.209538009380424 2.7600108127895595 C 0.0 **** -0.24
33057 H 82.54310071488973 43.00877491049113 3.434738719988829 H 0.0 **** 0.06
33058 H 82.29186934230592 41.30217480697536 2.995171181338918 H 0.0 **** 0.06
33059 H 83.9163755186309 42.02179004235734 2.8804393130903776 H 0.0 **** 0.06
33060 H 82.64715895025131 42.50516066921455 1.7304924579518257 H 0.0 **** 0.06
33061 C 107.43310425203794 75.05763476266958 84.99002704367953 C 0.0 **** -0.24
33062 H 107.3112680107161 74.27022406357412 84.24537827925269 H 0.0 **** 0.06
33063 H 108.3668294536048 75.59049776342727 84.80460650232274 H 0.0 **** 0.06
33064 H 107.45793600540458 74.61485831639885 85.98524246593925 H 0.0 **** 0.06
33065 H 106.59806759366779 75.75407699687361 84.92165804245346 H 0.0 **** 0.06
33066 C 63.788480038376754 101.75537679487516 63.349393706474736 C 0.0 **** -0.24
33067 H 63.17603242983706 101.2193196231629 62.62300872757323 H 0.0 **** 0.06
33068 H 64.44834335788559 101.05141547637768 63.8568769820947 H 0.0 **** 0.06
33069 H 63.142332634221255 102.24118286205828 64.08029682314458 H 0.0 **** 0.06
33070 H 64.38576977227936 102.50815203948162 62.83518870915898 H 0.0 **** 0.06
33071 C 80.66105982307263 46.70254289814305 0.6257639821128578 C 0.0 **** -0.24
33072 H 80.8702587631864 47.69747606034433 1.0192525052699466 H 0.0 **** 0.06
33073 H 81.59354861193725 46.23414611942116 0.31146876436474713 H 0.0 **** 0.06
33074 H 79.98927263191496 46.78383666435379 -0.22777839460360383 H 0.0 **** 0.06
33075 H 80.19256519255077 46.09695898745766 1.4011021382441413 H 0.0 **** 0.06
33076 C 106.54800937485774 76.49465888832708 75.12276161303899 C 0.0 **** -0.24
33077 H 107.40747675130774 75.8417072193424 75.27471995457529 H 0.0 **** 0.06
33078 H 105.88394787180752 76.05331589313298 74.3794534132507 H 0.0 **** 0.06
33079 H 106.89062163454659 77.46826458347982 74.77212620813174 H 0.0 **** 0.06
33080 H 106.01309249929923 76.6151251227472 76.06416967756346 H 0.0 **** 0.06
33081 C 71.26792253780238 105.80717406423426 86.9333219034929 C 0.0 **** -0.24
33082 H 71.94282251398388 106.1780384534483 87.70497858773021 H 0.0 **** 0.06
33083 H 70.51044402833392 106.56267154011569 86.71920419882827 H 0.0 **** 0.06
33084 H 70.78274417454111 104.89575236458955 87.28247491417312 H 0.0 **** 0.06
33085 H 71.83366792063788 105.5931305360952 86.02701738934513 H 0.0 **** 0.06
33086 C 109.55152415511833 83.29538681919703 58.14830461585775 C 0.0 **** -0.24
33087 H 108.93822269766761 83.12686296675261 57.26232351984058 H 0.0 **** 0.06
33088 H 108.94112118976085 83.74451150505169 58.93183740603494 H 0.0 **** 0.06
33089 H 110.37425772540979 83.96521063353353 57.89782122166846 H 0.0 **** 0.06
33090 H 109.95099430630482 82.34413892366834 58.49898451385341 H 0.0 **** 0.06
33091 C 108.84226506258426 57.81244399977826 108.44822029548715 C 0.0 **** -0.24
33092 H 109.08352421859209 58.87410061865166 108.40751932340386 H 0.0 **** 0.06
33093 H 107.85627151577899 57.68046142539841 108.8947287105994 H 0.0 **** 0.06
33094 H 109.58768509012586 57.29332435280532 109.05081151088369 H 0.0 **** 0.06
33095 H 108.84286634806594 57.40119043353387 107.43813188030458 H 0.0 **** 0.06
33096 C 51.33504976888295 111.57648308340958 34.33521595327886 C 0.0 **** -0.24
33097 H 50.55900374366274 111.02426479378805 34.865239460205885 H 0.0 **** 0.06
33098 H 51.31861927024511 112.61964624190061 34.650693443034015 H 0.0 **** 0.06
33099 H 51.15426952818129 111.5174755360628 33.2619592271044 H 0.0 **** 0.06
33100 H 52.309561492140546 111.14337207235623 34.563190090012256 H 0.0 **** 0.06
33101 C 103.4952017376574 58.40738875976043 69.88325429985181 C 0.0 **** -0.24
33102 H 103.41359295769757 58.15822996992129 70.94202357907932 H 0.0 **** 0.06
33103 H 104.54576079297868 58.514900916261986 69.61562185276634 H 0.0 **** 0.06
33104 H 102.97075479811639 59.34312839914916 69.68906073806059 H 0.0 **** 0.06
33105 H 103.04723833995138 57.61043321256267 69.28872666704575 H 0.0 **** 0.06
33106 C 78.10972179603326 75.06025209100065 82.86616017878828 C 0.0 **** -0.24
33107 H 78.97864587193413 75.16422041915061 83.51585465900686 H 0.0 **** 0.06
33108 H 77.89063390065346 76.02010855240118 82.39725771644791 H 0.0 **** 0.06
33109 H 77.25196239618751 74.73920503128059 83.45556655852863 H 0.0 **** 0.06
33110 H 78.31909834863816 74.3189589358256 82.09466401354385 H 0.0 **** 0.06
33111 C 63.227396135228425 58.17877156605567 110.42209858589695 C 0.0 **** -0.24
33112 H 63.722910153946934 58.136751276951145 111.39171114004222 H 0.0 **** 0.06
33113 H 62.892648273383124 59.197957594680815 110.2291527558894 H 0.0 **** 0.06
33114 H 62.36766902358713 57.50866586243987 110.42434211905982 H 0.0 **** 0.06
33115 H 63.92497449982459 57.87199716627924 109.64310484287262 H 0.0 **** 0.06
33116 C 29.327575549100374 78.83308638236662 61.04733640659659 C 0.0 **** -0.24
33117 H 30.3603542030082 78.48299182026571 61.06827742688407 H 0.0 **** 0.06
33118 H 29.04583076856224 79.19180898067964 62.03746840991956 H 0.0 **** 0.06
33119 H 28.67131282871199 78.01282299396996 60.75646597824559 H 0.0 **** 0.06
33120 H 29.234778284227787 79.64591647490383 60.32631119261311 H 0.0 **** 0.06
33121 C 67.15104922327075 91.22242258257538 76.63576992076969 C 0.0 **** -0.24
33122 H 66.69694068289729 90.5121549643302 77.3257319897163 H 0.0 **** 0.06
33123 H 67.10437282103607 92.22399011571898 77.06296210597912 H 0.0 **** 0.06
33124 H 66.61128712919358 91.204496960347 75.68920776349592 H 0.0 **** 0.06
33125 H 68.19211283764733 90.94745472450793 76.46561812717488 H 0.0 **** 0.06
33126 C 19.78060043779655 69.8306011869955 22.456567340164185 C 0.0 **** -0.24
33127 H 20.745603173362184 69.47374041638545 22.817034431493965 H 0.0 **** 0.06
33128 H 19.33985119162267 70.49681733000438 23.197672932723066 H 0.0 **** 0.06
33129 H 19.118699340025046 68.97964500090623 22.292402918070167 H 0.0 **** 0.06
33130 H 19.91968025674757 70.3688388680639 21.518359762423728 H 0.0 **** 0.06
33131 C 104.12883984209998 95.08153876111606 5.55760952866197 C 0.0 **** -0.24
33132 H 104.5254456725662 95.39327526900232 6.5247298162862535 H 0.0 **** 0.06
33133 H 103.66220194974267 94.1019086479757 5.655585277958821 H 0.0 **** 0.06
33134 H 104.94172190828215 95.02684776137855 4.833258059667898 H 0.0 **** 0.06
33135 H 103.38800335429977 95.8052991477023 5.219001279114522 H 0.0 **** 0.06
33136 C 45.337014044171895 75.16271612692981 59.84927069350348 C 0.0 **** -0.24
33137 H 44.76694348676489 75.24494256051514 60.77507834412395 H 0.0 **** 0.06
33138 H 46.40036450879643 75.26630126967984 60.06763130192291 H 0.0 **** 0.06
33139 H 45.02790824478268 75.9501624546291 59.16191469113014 H 0.0 **** 0.06
33140 H 45.15194689444502 74.18939743861796 59.39514157589905 H 0.0 **** 0.06
33141 C 90.58848882690592 65.42516603781866 102.51588914305606 C 0.0 **** -0.24
33142 H 90.12308027218094 65.17657179166977 101.56157251549527 H 0.0 **** 0.06
33143 H 91.1132368793071 66.37648814648313 102.42704024784257 H 0.0 **** 0.06
33144 H 91.29602333457453 64.64293196968842 102.78901936051818 H 0.0 **** 0.06
33145 H 89.81944321301833 65.50454445053668 103.28479833751496 H 0.0 **** 0.06
33146 C 44.18532036911952 43.63696638595468 93.29967544771495 C 0.0 **** -0.24
33147 H 45.17679227579961 43.84653779718843 92.8974967504079 H 0.0 **** 0.06
33148 H 44.144747813772256 42.60439092077195 93.64654021989492 H 0.0 **** 0.06
33149 H 43.43801184700379 43.78892760147403 92.52131941630782 H 0.0 **** 0.06
33150 H 43.98318611445495 44.30942653956026 94.13427808419573 H 0.0 **** 0.06
33151 C 69.42306749060356 11.08895109622976 9.156647269155542 C 0.0 **** -0.24
33152 H 69.50531134175966 11.80659630107246 8.340672594464309 H 0.0 **** 0.06
33153 H 69.72229560409627 11.565955788520824 10.09063363040957 H 0.0 **** 0.06
33154 H 70.07316138321872 10.237525607089488 8.958521341711105 H 0.0 **** 0.06
33155 H 68.39059380913451 10.747956959072916 9.23721105152606 H 0.0 **** 0.06
33156 C 72.52194549399698 44.87614348602122 12.200362988939062 C 0.0 **** -0.24
33157 H 72.2914490920833 44.858118941101225 13.265861909834854 H 0.0 **** 0.06
33158 H 71.78827779188666 45.49175229358309 11.680091061394862 H 0.0 **** 0.06
33159 H 72.48986951193697 43.86028934092616 11.804700306386096 H 0.0 **** 0.06
33160 H 73.51778485481086 45.29221371020944 12.050763944943995 H 0.0 **** 0.06
33161 C 16.4909691785835 83.65644781985381 5.833174760107056 C 0.0 **** -0.24
33162 H 17.135330851309604 84.40035234326382 5.36232275684273 H 0.0 **** 0.06
33163 H 15.997842819662658 84.10031129688838 6.69851402798281 H 0.0 **** 0.06
33164 H 17.092676252277325 82.80556158202035 6.152985033175412 H 0.0 **** 0.06
33165 H 15.73939973072148 83.32228991520822 5.117574817537047 H 0.0 **** 0.06
33166 C 43.00810895018512 38.74837516903628 30.68418304936288 C 0.0 **** -0.24
33167 H 43.42847780548374 39.24268630727647 31.5598153328137 H 0.0 **** 0.06
33168 H 41.989212167987404 39.10110425055086 30.524086398931352 H 0.0 **** 0.06
33169 H 42.99864362116148 37.67019181831725 30.845798310754496 H 0.0 **** 0.06
33170 H 43.615194711203316 38.98016814916065 29.809816873893055 H 0.0 **** 0.06
33171 C 8.58262385699751 50.06097060809418 69.26154763266237 C 0.0 **** -0.24
33172 H 9.001055710252622 49.35973248590629 68.53945811099638 H 0.0 **** 0.06
33173 H 8.788924653858789 49.70895040078027 70.2719352328049 H 0.0 **** 0.06
33174 H 7.504918618325098 50.13408548852939 69.11385859758278 H 0.0 **** 0.06
33175 H 9.035354239279124 51.042440657472056 69.11889364230336 H 0.0 **** 0.06
33176 C 31.346880501203117 92.2579798941141 22.793629600539447 C 0.0 **** -0.24
33177 H 30.813766538481957 91.68563733665746 22.03410940933 H 0.0 **** 0.06
33178 H 31.055337136137922 93.30564682505633 22.728816143860996 H 0.0 **** 0.06
33179 H 32.420293030910045 92.16816871251075 22.628493744006533 H 0.0 **** 0.06
33180 H 31.097172412624474 91.87073818059753 23.781648394679536 H 0.0 **** 0.06
33181 C 74.65486877969647 95.06917797680526 85.37517823094694 C 0.0 **** -0.24
33182 H 74.68022892169415 94.31315052292996 86.15967852850366 H 0.0 **** 0.06
33183 H 75.44500121523657 95.80037638105165 85.54959465844618 H 0.0 **** 0.06
33184 H 73.68706580614918 95.57013588626367 85.38366013561134 H 0.0 **** 0.06
33185 H 74.80817895024364 94.59213620004223 84.40669922919935 H 0.0 **** 0.06
33186 C 60.943443522059795 26.428573749195216 57.029088880240344 C 0.0 **** -0.24
33187 H 61.829603122376085 26.76887250916159 56.492575736614995 H 0.0 **** 0.06
33188 H 60.058265232344354 26.899812165873115 56.60256442929156 H 0.0 **** 0.06
33189 H 61.03016740193402 26.70180979235745 58.08083097627577 H 0.0 **** 0.06
33190 H 60.85924492974647 25.346107768445915 56.9410019856847 H 0.0 **** 0.06
33191 C 104.92913532700672 47.54223749601721 91.51294793624146 C 0.0 **** -0.24
33192 H 105.32138113989075 46.52914605013524 91.61142857775843 H 0.0 **** 0.06
33193 H 105.57528248434417 48.11786383516494 90.84971298980207 H 0.0 **** 0.06
33194 H 104.89792129001032 48.01646523086697 92.49346722860236 H 0.0 **** 0.06
33195 H 103.9229597832259 47.502997533521864 91.09582040173683 H 0.0 **** 0.06
33196 C 33.02779942957778 99.21132670653162 3.46314859928475 C 0.0 **** -0.24
33197 H 33.32696066332217 99.91143782650985 4.242738444345946 H 0.0 **** 0.06
33198 H 32.95475990109853 99.73866265166939 2.5112139887442595 H 0.0 **** 0.06
33199 H 32.05948501117484 98.77972445544353 3.7150454667946065 H 0.0 **** 0.06
33200 H 33.770807474698415 98.41832701872951 3.3831055786976094 H 0.0 **** 0.06
33201 C 25.946258756856537 83.00356233873742 107.49388591454107 C 0.0 **** -0.24
33202 H 26.974288267526532 82.913259140095 107.14277758784834 H 0.0 **** 0.06
33203 H 25.94554642097853 83.22283555373485 108.56202082643168 H 0.0 **** 0.06
33204 H 25.417331291409823 82.06683262247967 107.31549976504238 H 0.0 **** 0.06
33205 H 25.447889004362253 83.80955686643131 106.95661808673032 H 0.0 **** 0.06
33206 C 22.00262195578412 77.29791213523438 18.197114550439178 C 0.0 **** -0.24
33207 H 20.91750651737125 77.28908274936177 18.30062747898197 H 0.0 **** 0.06
33208 H 22.3706965467763 76.27371685154912 18.141217534663525 H 0.0 **** 0.06
33209 H 22.445191773175075 77.79689012199489 19.059920659618207 H 0.0 **** 0.06
33210 H 22.27676396472534 77.83342626728881 17.287551893359087 H 0.0 **** 0.06
33211 C 16.910624422658316 34.07866317443552 59.39224926423111 C 0.0 **** -0.24
33212 H 16.594128316210913 34.78586441876689 60.15936792678332 H 0.0 **** 0.06
33213 H 17.818035109186525 33.570566789939164 59.71985168151173 H 0.0 **** 0.06
33214 H 17.108628236614095 34.614855259123544 58.46340374168062 H 0.0 **** 0.06
33215 H 16.121910669969054 33.34412143253513 59.226996481098126 H 0.0 **** 0.06
33216 C 87.38989870954185 73.16850545459903 39.22447208380862 C 0.0 **** -0.24
33217 H 88.45168956465201 73.33751956498494 39.04627057264804 H 0.0 **** 0.06
33218 H 86.83040293748329 73.37603350271439 38.31121467447258 H 0.0 **** 0.06
33219 H 87.04576547164666 73.8305946004547 40.0196297548635 H 0.0 **** 0.06
33220 H 87.2312916695557 72.1316707088985 39.52001543784024 H 0.0 **** 0.06
33221 C 29.721516148710506 83.57641658546478 68.43413548176684 C 0.0 **** -0.24
33222 H 30.36926735698323 83.69332282653096 67.56525246399198 H 0.0 **** 0.06
33223 H 29.982832614341817 82.65831596659729 68.9596098423693 H 0.0 **** 0.06
33224 H 28.683028475411106 83.5276895855435 68.10901037844795 H 0.0 **** 0.06
33225 H 29.85395797916624 84.42747396638015 69.10190854668673 H 0.0 **** 0.06
33226 C 63.22976538161353 27.501650204603408 20.75036325772703 C 0.0 **** -0.24
33227 H 62.99400114637598 26.44089049817339 20.83927048024509 H 0.0 **** 0.06
33228 H 62.44266789321486 28.088505110840345 21.224657782662632 H 0.0 **** 0.06
33229 H 63.30013728745871 27.77074984211429 19.696498198168854 H 0.0 **** 0.06
33230 H 64.18113002024847 27.704310705353954 21.24248768271417 H 0.0 **** 0.06
33231 C 52.7515327590653 77.14784990440893 111.31879320808113 C 0.0 **** -0.24
33232 H 52.6710245443619 76.08979599747221 111.57043742940654 H 0.0 **** 0.06
33233 H 53.74787434623761 77.35197054353876 110.92589292583904 H 0.0 **** 0.06
33234 H 52.583978864746996 77.74692276834088 112.21337564531164 H 0.0 **** 0.06
33235 H 52.00501433013966 77.39976449815305 110.56657211259454 H 0.0 **** 0.06
33236 C 19.838254279677898 66.58792107355035 52.998355543019926 C 0.0 **** -0.24
33237 H 19.98107109653509 66.91216053004715 51.966849070649914 H 0.0 **** 0.06
33238 H 19.8915017749716 65.50053266682806 53.04779766744366 H 0.0 **** 0.06
33239 H 18.861500374478595 66.92112569235942 53.35095014561493 H 0.0 **** 0.06
33240 H 20.618139967462398 67.01987121008077 53.62600020317894 H 0.0 **** 0.06
33241 C 27.64940845673445 43.64636807796168 87.92475283690496 C 0.0 **** -0.24
33242 H 26.599753260119428 43.50886810489651 87.66677208917207 H 0.0 **** 0.06
33243 H 28.069723717203914 42.69596066916454 88.25307311938303 H 0.0 **** 0.06
33244 H 27.733623187701312 44.37862800113464 88.7275969436215 H 0.0 **** 0.06
33245 H 28.194620820414258 44.002285815294066 87.04913615348048 H 0.0 **** 0.06
33246 C 52.32088274563755 70.1953901191464 49.897383113170974 C 0.0 **** -0.24
33247 H 52.09548578930843 70.9659467495712 49.160012723914576 H 0.0 **** 0.06
33248 H 52.19700898339382 70.60556148221693 50.90056616680073 H 0.0 **** 0.06
33249 H 53.34988493078707 69.85815147457026 49.76742132427694 H 0.0 **** 0.06
33250 H 51.642792063713806 69.35360507058613 49.76216747493203 H 0.0 **** 0.06
33251 C 91.19322699847126 47.39645898660092 88.91948246334476 C 0.0 **** -0.24
33252 H 90.23169762601682 47.88485742021021 89.07465195646321 H 0.0 **** 0.06
33253 H 91.4997823390556 47.518976822480795 87.88037340814563 H 0.0 **** 0.06
33254 H 91.10296837681264 46.33529805129132 89.15050456331866 H 0.0 **** 0.06
33255 H 91.93950435587954 47.84869635186152 89.57336847234589 H 0.0 **** 0.06
33256 C 22.017039652531338 51.83736255333679 24.63674776501925 C 0.0 **** -0.24
33257 H 21.708363355920255 52.70449866081424 25.22135049656083 H 0.0 **** 0.06
33258 H 23.044368742118905 51.57651867369799 24.89094414472781 H 0.0 **** 0.06
33259 H 21.95477075227913 52.07554532612755 23.575303516165945 H 0.0 **** 0.06
33260 H 21.36156721327484 50.995596006373944 24.86030616152587 H 0.0 **** 0.06
33261 C 2.804851921753311 65.57517265397462 45.183853024055196 C 0.0 **** -0.24
33262 H 3.156591502349144 66.21329089269682 44.37343538648024 H 0.0 **** 0.06
33263 H 1.8390926833841519 65.93633553069239 45.53832008587344 H 0.0 **** 0.06
33264 H 3.5249997655014056 65.59876899590887 46.00240525061248 H 0.0 **** 0.06
33265 H 2.700708272727681 64.5530547589872 44.82055498134082 H 0.0 **** 0.06
33266 C 43.37440358683415 12.155707511536534 29.237227436449075 C 0.0 **** -0.24
33267 H 44.23170901795973 12.551153491093388 28.692857854980588 H 0.0 **** 0.06
33268 H 42.51106636143854 12.11046711033859 28.573668464922406 H 0.0 **** 0.06
33269 H 43.14943635241792 12.806926975808949 30.081989743168634 H 0.0 **** 0.06
33270 H 43.606167218704684 11.154937083590085 29.601803303863278 H 0.0 **** 0.06
33271 C 32.44681174722702 37.64637026612455 110.9168468927694 C 0.0 **** -0.24
33272 H 33.20502820065304 36.911374266974946 110.64648586269067 H 0.0 **** 0.06
33273 H 32.20152088464041 38.25242987082922 110.043375845821 H 0.0 **** 0.06
33274 H 32.83083490487789 38.289336114280474 111.70939378326807 H 0.0 **** 0.06
33275 H 31.551070137900517 37.13336548603249 111.26655311044689 H 0.0 **** 0.06
33276 C 99.49833739836257 83.0418858454276 40.3099938064403 C 0.0 **** -0.24
33277 H 98.88705276045033 82.43484005418827 39.64208146295135 H 0.0 **** 0.06
33278 H 99.86853401811828 83.91390821853051 39.771775654521065 H 0.0 **** 0.06
33279 H 100.34136923561454 82.45040914438925 40.668593976743125 H 0.0 **** 0.06
33280 H 98.8963730260459 83.3673953671217 41.15894485824967 H 0.0 **** 0.06
33281 C 51.77089613686422 81.16029017238174 37.55715065490935 C 0.0 **** -0.24
33282 H 52.01753040107013 80.57754281594347 36.67084803943581 H 0.0 **** 0.06
33283 H 51.96282779804335 80.56324400863073 38.44953935598252 H 0.0 **** 0.06
33284 H 50.71786711113759 81.4406954015827 37.527567155687365 H 0.0 **** 0.06
33285 H 52.385158618418245 82.06057345322964 37.58291943058899 H 0.0 **** 0.06
33286 C 28.00266286145481 1.6984216489735786 48.80250554504397 C 0.0 **** -0.24
33287 H 28.06858428359 1.2435210453361663 49.79116940732172 H 0.0 **** 0.06
33288 H 27.941079286904817 0.9158328117716223 48.04652171922072 H 0.0 **** 0.06
33289 H 28.88902292794517 2.307544165301664 48.62410990529173 H 0.0 **** 0.06
33290 H 27.11348892306102 2.326252767535408 48.74940040107168 H 0.0 **** 0.06
33291 C 93.50116916917906 79.95388869899165 26.241834290777746 C 0.0 **** -0.24
33292 H 94.13541966357283 79.70395400178839 27.092276141201594 H 0.0 **** 0.06
33293 H 93.79383715726954 79.35038381174817 25.381694313274778 H 0.0 **** 0.06
33294 H 93.61749184806638 81.01048238168326 26.000413041480954 H 0.0 **** 0.06
33295 H 92.46024327649593 79.75011810333166 26.49244395921731 H 0.0 **** 0.06
33296 C 89.98360320277109 35.17370311991931 97.24494641359183 C 0.0 **** -0.24
33297 H 89.78919272636065 36.20614941704122 96.95655166256932 H 0.0 **** 0.06
33298 H 90.95084989925718 34.86185924255335 96.85027738659528 H 0.0 **** 0.06
33299 H 89.20067938111652 34.53107492717908 96.84053849628049 H 0.0 **** 0.06
33300 H 89.99087228848023 35.09570744967846 98.33218154546557 H 0.0 **** 0.06
33301 C 44.40021072405682 78.13324210182745 44.31407308821656 C 0.0 **** -0.24
33302 H 43.341429315877775 78.31978035865586 44.490032523640934 H 0.0 **** 0.06
33303 H 44.51158008255959 77.39285844387379 43.52103943666913 H 0.0 **** 0.06
33304 H 44.86043910195927 77.75857633517111 45.22759195156647 H 0.0 **** 0.06
33305 H 44.88742367427764 79.06103821458697 44.01471496375456 H 0.0 **** 0.06
33306 C 87.1449954650461 59.215277631381646 23.887475106650726 C 0.0 **** -0.24
33307 H 87.14943951293904 59.02402847095876 24.96027535105685 H 0.0 **** 0.06
33308 H 87.3219342035919 60.275824984677264 23.706883255342163 H 0.0 **** 0.06
33309 H 86.17795692106321 58.93255824266303 23.471340993161363 H 0.0 **** 0.06
33310 H 87.93071633468918 58.62888598066977 23.41042062771227 H 0.0 **** 0.06
33311 C 80.33761197447618 54.786362249407944 85.7579283899286 C 0.0 **** -0.24
33312 H 80.85152667758629 55.30139876862262 86.56944575992082 H 0.0 **** 0.06
33313 H 80.49655602237391 55.32788976398854 84.82505049410386 H 0.0 **** 0.06
33314 H 79.27000657256553 54.74202856458575 85.97502436837718 H 0.0 **** 0.06
33315 H 80.73046843582048 53.774274987284684 85.66283085304494 H 0.0 **** 0.06
33316 C 102.57524555539462 41.12657425529815 87.20800750217865 C 0.0 **** -0.24
33317 H 103.3471007773577 40.44765990380367 86.84515874155426 H 0.0 **** 0.06
33318 H 102.71609966721263 42.110184436040186 86.75955177365032 H 0.0 **** 0.06
33319 H 102.64522120737527 41.2082617936334 88.29292960701997 H 0.0 **** 0.06
33320 H 101.59384801428763 40.73980595623061 86.93483082578402 H 0.0 **** 0.06
33321 C 104.86802616226444 31.60957398901695 95.03931192199022 C 0.0 **** -0.24
33322 H 105.51909789742044 31.32547779613651 94.21300429275959 H 0.0 **** 0.06
33323 H 104.70039134223737 32.687220984275086 95.01524912384625 H 0.0 **** 0.06
33324 H 105.33803818050146 31.336393780730532 95.98335195796321 H 0.0 **** 0.06
33325 H 103.91360796672117 31.091517938199274 94.94433698812333 H 0.0 **** 0.06
33326 C 75.71912008660607 111.86581928234119 108.9816666773485 C 0.0 **** -0.24
33327 H 74.90851276047923 112.5869050957146 109.0910488237628 H 0.0 **** 0.06
33328 H 76.62191591243052 112.38167533912014 108.65479421128038 H 0.0 **** 0.06
33329 H 75.43911742863872 111.11634686111199 108.2411742667446 H 0.0 **** 0.06
33330 H 75.90348262795345 111.37918653050241 109.93902730149188 H 0.0 **** 0.06
33331 C 68.75316171187848 61.08951573755747 98.11730427630582 C 0.0 **** -0.24
33332 H 68.58744053016795 61.90371553110314 98.82219825986533 H 0.0 **** 0.06
33333 H 69.02749640291603 60.18678435194918 98.66441120574297 H 0.0 **** 0.06
33334 H 69.55771465331003 61.3581242704116 97.43347655530431 H 0.0 **** 0.06
33335 H 67.83988720420615 60.90800016406197 97.55111073074085 H 0.0 **** 0.06
33336 C 6.7787819889902465 12.17499494419414 81.6783627520756 C 0.0 **** -0.24
33337 H 6.673057537701794 12.840249429448988 80.82066101302189 H 0.0 **** 0.06
33338 H 5.800308963809343 11.778471355133206 81.9523902404992 H 0.0 **** 0.06
33339 H 7.194760273530889 12.729843683812987 82.5193136020786 H 0.0 **** 0.06
33340 H 7.444868995801329 11.351725103619032 81.4199207541111 H 0.0 **** 0.06
33341 C 3.358018591140194 4.819051383075049 23.347435509593424 C 0.0 **** -0.24
33342 H 4.031674899885218 4.044740925537809 23.7142186488158 H 0.0 **** 0.06
33343 H 3.409627406014266 4.861395193780368 22.26029760628012 H 0.0 **** 0.06
33344 H 3.652349976480025 5.78318708106849 23.76392064600236 H 0.0 **** 0.06
33345 H 2.3376086738900312 4.58771976274582 23.655504917543794 H 0.0 **** 0.06
33346 C 71.27929174365346 63.811235606421405 63.04617859670799 C 0.0 **** -0.24
33347 H 71.33123276012489 63.50253521360645 64.09027370226892 H 0.0 **** 0.06
33348 H 70.86225552894504 64.81756749003227 62.9861332310075 H 0.0 **** 0.06
33349 H 70.6437243172548 63.12052231931972 62.493452170302305 H 0.0 **** 0.06
33350 H 72.28102787697796 63.80743686188089 62.616310374690954 H 0.0 **** 0.06
33351 C 55.4304163619518 44.97327891875558 95.0658687018705 C 0.0 **** -0.24
33352 H 55.31138420205406 44.27862349100627 95.89746390420856 H 0.0 **** 0.06
33353 H 55.72022882266925 44.42204996231209 94.17162280063573 H 0.0 **** 0.06
33354 H 56.20263080016509 45.70287716416861 95.30959938826109 H 0.0 **** 0.06
33355 H 54.4867750416255 45.4892252916855 94.88599974915982 H 0.0 **** 0.06
33356 C 10.970392853275996 46.89853232095396 38.71530783604908 C 0.0 **** -0.24
33357 H 10.303032895919614 47.665539599761075 38.322473386433714 H 0.0 **** 0.06
33358 H 10.699328429586387 46.675883514619954 39.74747981560485 H 0.0 **** 0.06
33359 H 11.998380389475983 47.258549982436534 38.678034801087364 H 0.0 **** 0.06
33360 H 10.87941116982239 45.99535805517331 38.11250610484777 H 0.0 **** 0.06
33361 C 74.76128726412506 42.86787191766114 48.66851703596288 C 0.0 **** -0.24
33362 H 75.59397435972457 43.18127522064013 49.29864400033502 H 0.0 **** 0.06
33363 H 73.93030665266059 42.549656498857836 49.299055402848744 H 0.0 **** 0.06
33364 H 75.07611287075648 42.037445184377766 48.03689955448405 H 0.0 **** 0.06
33365 H 74.44448122407363 43.70159203199441 48.042041909835206 H 0.0 **** 0.06
33366 C 36.904322703441125 104.38134808783582 6.466317996933952 C 0.0 **** -0.24
33367 H 37.08832788123823 103.30894426380476 6.533187557699776 H 0.0 **** 0.06
33368 H 37.262421973300064 104.86870125986894 7.372362756766989 H 0.0 **** 0.06
33369 H 35.834512258249106 104.56017425261294 6.354249907812147 H 0.0 **** 0.06
33370 H 37.43221700506123 104.78624447258312 5.602438399446669 H 0.0 **** 0.06
33371 C 109.77447577226974 85.81151945530755 37.2103828735863 C 0.0 **** -0.24
33372 H 109.43912238724135 85.29511785916753 38.109772046545544 H 0.0 **** 0.06
33373 H 110.02441946983026 85.07894834523881 36.44270642697029 H 0.0 **** 0.06
33374 H 110.65474224632673 86.41097387295409 37.44287746476576 H 0.0 **** 0.06
33375 H 108.97730260506505 86.46068960655944 36.84689216027752 H 0.0 **** 0.06
33376 C 99.95952242469448 13.847836129798083 1.2899521973255048 C 0.0 **** -0.24
33377 H 100.96146537690606 14.262195938011217 1.397425936627144 H 0.0 **** 0.06
33378 H 99.33804507674819 14.18160688754557 2.1220648623796876 H 0.0 **** 0.06
33379 H 100.01417376787242 12.759433030701132 1.2904872119746358 H 0.0 **** 0.06
33380 H 99.52380667473724 14.190220920858678 0.3509171218908307 H 0.0 **** 0.06
33381 C 78.82232568433272 104.33890031800328 38.9839469353991 C 0.0 **** -0.24
33382 H 78.65500398861658 104.65106248599432 40.01479834097333 H 0.0 **** 0.06
33383 H 79.26551657928877 105.16169189093088 38.42274442112722 H 0.0 **** 0.06
33384 H 77.87189359185203 104.05953689679987 38.53065207038924 H 0.0 **** 0.06
33385 H 79.49804538440708 103.48322263982232 38.96887911928377 H 0.0 **** 0.06
33386 C 45.52042540523399 6.676559122009934 87.41891651583902 C 0.0 **** -0.24
33387 H 45.77701961458882 5.633367773831878 87.59991248644681 H 0.0 **** 0.06
33388 H 46.387380327148264 7.305078004361093 87.62641509017246 H 0.0 **** 0.06
33389 H 44.697163304812705 6.966504296511431 88.0713241056933 H 0.0 **** 0.06
33390 H 45.221015295743086 6.801642496778129 86.37833729006923 H 0.0 **** 0.06
33391 C 36.75358997528349 48.73894507428823 88.84934961676947 C 0.0 **** -0.24
33392 H 35.79987847955357 48.94743972061182 89.33410703104616 H 0.0 **** 0.06
33393 H 36.589516681338694 48.09083627887625 87.98806141193157 H 0.0 **** 0.06
33394 H 37.41970884431373 48.24440316094227 89.5565881613575 H 0.0 **** 0.06
33395 H 37.20450087509806 49.67497411772353 88.51960215922509 H 0.0 **** 0.06
33396 C 46.93535055720821 63.13462567754556 17.4026398204123 C 0.0 **** -0.24
33397 H 47.78275128810759 62.749525358617745 17.968698176199016 H 0.0 **** 0.06
33398 H 46.72826556530944 62.47059564066666 16.562615783267855 H 0.0 **** 0.06
33399 H 47.17024750904815 64.13071261750702 17.029487659750764 H 0.0 **** 0.06
33400 H 46.060131259371076 63.185939577330316 18.049663318833613 H 0.0 **** 0.06
33401 C 105.54946735206218 77.02876475822308 3.531738198114269 C 0.0 **** -0.24
33402 H 105.70828564005976 76.72394396892108 4.566251823915735 H 0.0 **** 0.06
33403 H 104.89754900022601 76.30860321149135 3.0376702089521643 H 0.0 **** 0.06
33404 H 106.50810524689501 77.06614632057537 3.013038409620549 H 0.0 **** 0.06
33405 H 105.08599146067434 78.01453425017033 3.5106210518526524 H 0.0 **** 0.06
33406 C 111.37182102794084 60.3816123660456 21.14364734480554 C 0.0 **** -0.24
33407 H 112.34290368547501 60.33177165333481 21.635493586385113 H 0.0 **** 0.06
33408 H 111.49300234551838 60.80219513533916 20.1447451050279 H 0.0 **** 0.06
33409 H 110.70155830397957 61.01381596517959 21.72577951476365 H 0.0 **** 0.06
33410 H 110.9510748152992 59.37863111557107 21.066467853836237 H 0.0 **** 0.06
33411 C 25.900260114609694 55.45892653436323 12.310407261666597 C 0.0 **** -0.24
33412 H 25.591099749003092 54.72859497577059 11.563444742298081 H 0.0 **** 0.06
33413 H 25.314639518503157 56.3704358892351 12.191598202486517 H 0.0 **** 0.06
33414 H 26.95861534957683 55.68663162594672 12.178255633398848 H 0.0 **** 0.06
33415 H 25.738686064570913 55.049497114368194 13.307493394211335 H 0.0 **** 0.06
33416 C 102.81579946635162 92.79907674923643 83.13247518103046 C 0.0 **** -0.24
33417 H 102.71850327876683 91.75677573300956 82.828083235659 H 0.0 **** 0.06
33418 H 102.73810028360509 93.44299640901849 82.25575757166689 H 0.0 **** 0.06
33419 H 103.78572477077819 92.94912154730577 83.60857701511267 H 0.0 **** 0.06
33420 H 102.0228120984014 93.04707440657509 83.83714852202866 H 0.0 **** 0.06
33421 C 102.25469219226085 45.683909047641805 51.530149734474584 C 0.0 **** -0.24
33422 H 101.32257972146459 45.70166146551014 52.094933396308235 H 0.0 **** 0.06
33423 H 102.95388889260548 46.399869937834524 51.96155828624326 H 0.0 **** 0.06
33424 H 102.0550059037929 45.95124115228322 50.49217123859309 H 0.0 **** 0.06
33425 H 102.68574172386428 44.68356356313183 51.57225213323336 H 0.0 **** 0.06
33426 C 21.87291035909132 37.8340034918553 67.53794413232094 C 0.0 **** -0.24
33427 H 22.251993881833897 38.144790606037986 68.51212610269414 H 0.0 **** 0.06
33428 H 21.51190678732769 38.70731420899335 66.99272186138342 H 0.0 **** 0.06
33429 H 21.054334890429743 37.12793526472183 67.67540400243126 H 0.0 **** 0.06
33430 H 22.673192747535637 37.35681142678908 66.97264403479207 H 0.0 **** 0.06
33431 C 94.71659368413165 3.646886360771745 88.606459024234 C 0.0 **** -0.24
33432 H 93.70071297745002 3.752765666848404 88.22505060045896 H 0.0 **** 0.06
33433 H 94.88661853421405 2.6112627928071674 88.90129080609333 H 0.0 **** 0.06
33434 H 94.84961983813253 4.29728890547041 89.47060595965144 H 0.0 **** 0.06
33435 H 95.42697681734236 3.924927068424978 87.82832116909984 H 0.0 **** 0.06
33436 C 87.69930772315993 111.48892451697526 55.004140472645076 C 0.0 **** -0.24
33437 H 87.87178688361945 111.88077675588124 56.00646184968025 H 0.0 **** 0.06
33438 H 86.89955127944529 112.05542701956784 54.52614571668971 H 0.0 **** 0.06
33439 H 87.41360483423193 110.4391640601504 55.06843053886365 H 0.0 **** 0.06
33440 H 88.61214915968984 111.58231918687483 54.41568202257025 H 0.0 **** 0.06
33441 C 79.83416645105137 70.61170599489765 56.73878687036074 C 0.0 **** -0.24
33442 H 79.74997989677635 71.0415567577956 57.737443165671344 H 0.0 **** 0.06
33443 H 79.30759749058154 71.24659418405056 56.02544573888101 H 0.0 **** 0.06
33444 H 79.39224043969054 69.61532901046982 56.73482531880308 H 0.0 **** 0.06
33445 H 80.88533743070275 70.54433490323964 56.46002882767222 H 0.0 **** 0.06
33446 C 38.51656100796322 77.39341610157683 17.171846864712478 C 0.0 **** -0.24
33447 H 39.03254505430948 78.24675308758833 16.731185009651654 H 0.0 **** 0.06
33448 H 38.3259109705337 77.59050747923354 18.227339644078285 H 0.0 **** 0.06
33449 H 39.13714260758462 76.50298784435603 17.073967571024866 H 0.0 **** 0.06
33450 H 37.57017820228731 77.23557008390432 16.654518522000274 H 0.0 **** 0.06
33451 C 64.71970347776107 34.23964568728087 33.02040584410608 C 0.0 **** -0.24
33452 H 65.10135813944532 34.226037042246986 34.041524807749965 H 0.0 **** 0.06
33453 H 63.63872099910743 34.097087472777304 33.035016809283945 H 0.0 **** 0.06
33454 H 65.1853331304514 33.43791688187392 32.44754345320959 H 0.0 **** 0.06
33455 H 64.95333423658641 35.19999278108915 32.55894770563418 H 0.0 **** 0.06
33456 C 62.44168218466674 9.005001753613271 16.337799959170372 C 0.0 **** -0.24
33457 H 62.28572557214465 9.755160095609881 17.11322074814305 H 0.0 **** 0.06
33458 H 62.50145398842238 9.493578677331982 15.365386313899293 H 0.0 **** 0.06
33459 H 61.60905791701425 8.301554134152298 16.341065821274384 H 0.0 **** 0.06
33460 H 63.370505800146 8.46847849234615 16.532740713772057 H 0.0 **** 0.06
33461 C 38.762385883861896 95.54083144413386 8.113774924807927 C 0.0 **** -0.24
33462 H 37.78770951972019 95.35845848775497 7.6615819807295225 H 0.0 **** 0.06
33463 H 39.535231216176044 95.4832986266832 7.346230431674911 H 0.0 **** 0.06
33464 H 38.95369086401671 94.78986428336086 8.880445734744015 H 0.0 **** 0.06
33465 H 38.77229908174696 96.53285796782066 8.566299559548156 H 0.0 **** 0.06
33466 C 48.856409336307095 91.12760701976853 111.31566166634738 C 0.0 **** -0.24
33467 H 49.476592144268984 91.20888155620108 110.42396383347436 H 0.0 **** 0.06
33468 H 48.213531588506875 90.25159208082218 111.23320329334274 H 0.0 **** 0.06
33469 H 48.241268592855945 92.02247021888803 111.41325338904717 H 0.0 **** 0.06
33470 H 49.494292509365074 91.02874969620328 112.19406913794778 H 0.0 **** 0.06
33471 C 20.322616414447026 59.943511411504346 71.48465955815476 C 0.0 **** -0.24
33472 H 19.649240969203674 60.584316404643346 70.91411337728951 H 0.0 **** 0.06
33473 H 19.81446858208824 59.01026031972219 71.72962614975785 H 0.0 **** 0.06
33474 H 20.614118964046185 60.451399250132795 72.40383287134824 H 0.0 **** 0.06
33475 H 21.21064856175255 59.72949704211743 70.89115803144065 H 0.0 **** 0.06
33476 C 55.11643187623312 20.464997226935594 28.36334236371991 C 0.0 **** -0.24
33477 H 54.91215884054158 19.615436957948162 27.711658184140248 H 0.0 **** 0.06
33478 H 54.94342255750666 20.175676306316944 29.400383166378646 H 0.0 **** 0.06
33479 H 54.4553800546275 21.29056613358918 28.101075675363262 H 0.0 **** 0.06
33480 H 56.15351398196457 20.775604002205455 28.240588670986142 H 0.0 **** 0.06
33481 C 29.04030682886019 34.78682274930287 108.54042674838573 C 0.0 **** -0.24
33482 H 29.35637006813129 33.77954040046785 108.81098666099084 H 0.0 **** 0.06
33483 H 28.028921286790073 34.961332417696326 108.90676268663785 H 0.0 **** 0.06
33484 H 29.05856944273925 34.89349267431314 107.45584323854608 H 0.0 **** 0.06
33485 H 29.719336496998515 35.5130552584084 108.98916446902432 H 0.0 **** 0.06
33486 C 6.399987555093787 45.10254670740693 42.65754922036382 C 0.0 **** -0.24
33487 H 6.578448703095276 44.68139183986236 41.66752060554512 H 0.0 **** 0.06
33488 H 6.5181587139823165 44.32317887656811 43.410361780917185 H 0.0 **** 0.06
33489 H 5.386129144000762 45.501791589407304 42.703474274203245 H 0.0 **** 0.06
33490 H 7.11511556047293 45.90272739676141 42.845942793009726 H 0.0 **** 0.06
33491 C 72.23499815644644 48.334972682160995 103.37185792547001 C 0.0 **** -0.24
33492 H 71.49793778628427 48.509062345425875 102.58823099692265 H 0.0 **** 0.06
33493 H 72.98020323098314 47.62198880884503 103.0183698593022 H 0.0 **** 0.06
33494 H 71.737170173523 47.93274902264508 104.25480576077007 H 0.0 **** 0.06
33495 H 72.72312303042179 49.2749622640875 103.6265714996365 H 0.0 **** 0.06
33496 C 89.49542238376281 28.85240772697162 72.09553089742451 C 0.0 **** -0.24
33497 H 90.26870498904606 28.685058928770445 72.84485909362036 H 0.0 **** 0.06
33498 H 89.0292970380572 29.82345341933629 72.26515950557842 H 0.0 **** 0.06
33499 H 88.74102980824654 28.068897454235753 72.17014262820351 H 0.0 **** 0.06
33500 H 89.94265769970161 28.832221105543937 71.10196236229592 H 0.0 **** 0.06
33501 C 36.813555577544264 27.234696739077037 1.5970182289977686 C 0.0 **** -0.24
33502 H 35.85045028252591 27.726296760129557 1.7350255123442935 H 0.0 **** 0.06
33503 H 36.82196481205659 26.71169146933329 0.6405893623358452 H 0.0 **** 0.06
33504 H 36.97409272214577 26.519124642723014 2.4035700273201996 H 0.0 **** 0.06
33505 H 37.60805458587055 27.98166296680543 1.6110981038459045 H 0.0 **** 0.06
33506 C 8.399138853658712 47.33842009635691 71.75110887922702 C 0.0 **** -0.24
33507 H 7.430979078992323 47.576984442272476 72.18946261393054 H 0.0 **** 0.06
33508 H 8.866198243583426 46.53143084216873 72.31712774221202 H 0.0 **** 0.06
33509 H 9.039195640482149 48.22080896607406 71.78073390160023 H 0.0 **** 0.06
33510 H 8.262539869553848 47.02420965050629 70.71649306319188 H 0.0 **** 0.06
33511 C 54.76703812961561 20.49035672777089 104.10544425047348 C 0.0 **** -0.24
33512 H 54.4851541319793 20.52676048261666 103.05283434829937 H 0.0 **** 0.06
33513 H 55.82785352551585 20.250784109080683 104.18856544353508 H 0.0 **** 0.06
33514 H 54.180711059296726 19.723664702690932 104.61261812181496 H 0.0 **** 0.06
33515 H 54.575831581916844 21.459228919349847 104.56632069623942 H 0.0 **** 0.06
33516 C 27.10434027487952 78.93397550714928 29.267629878681362 C 0.0 **** -0.24
33517 H 27.24590877674649 77.89726885475548 29.57225922303374 H 0.0 **** 0.06
33518 H 26.2077781551489 79.01276544468533 28.6530553266752 H 0.0 **** 0.06
33519 H 27.96920844555089 79.26503778974202 28.692737539205297 H 0.0 **** 0.06
33520 H 26.99446572207202 79.56082993941422 30.152467425811352 H 0.0 **** 0.06
33521 C 60.52390957582983 48.79654023014875 31.282593600416305 C 0.0 **** -0.24
33522 H 60.657501379303795 49.38948115405599 30.37814037103476 H 0.0 **** 0.06
33523 H 59.53415176637546 48.33957039685997 31.274627255852067 H 0.0 **** 0.06
33524 H 60.62115499926276 49.439582605496014 32.15666290881131 H 0.0 **** 0.06
33525 H 61.28444313670721 48.016164454685686 31.320207186010464 H 0.0 **** 0.06
33526 C 111.61447440190796 62.91855220616143 74.49536499405258 C 0.0 **** -0.24
33527 H 112.09829057418497 63.18569962564583 73.55566845869598 H 0.0 **** 0.06
33528 H 110.55618751753416 63.176201633946285 74.44444269684368 H 0.0 **** 0.06
33529 H 112.08290083339662 63.46469699657114 75.31392282036282 H 0.0 **** 0.06
33530 H 111.71968084051382 61.84724365965268 74.66538549000168 H 0.0 **** 0.06
33531 C 12.241979952002396 14.153455932363698 93.79391956581412 C 0.0 **** -0.24
33532 H 12.09854518017039 14.615146079734473 92.81727478220887 H 0.0 **** 0.06
33533 H 13.165465486630524 14.523515604847475 94.23919553901936 H 0.0 **** 0.06
33534 H 12.30327584402221 13.071198875662631 93.67847745304465 H 0.0 **** 0.06
33535 H 11.400536590720094 14.40300094223069 94.44098509421298 H 0.0 **** 0.06
33536 C 102.3034509979637 8.8821946695315 85.45643820200783 C 0.0 **** -0.24
33537 H 103.00382517078248 8.17666639410173 85.90332437832734 H 0.0 **** 0.06
33538 H 102.18403982863262 9.742179155188069 86.11711752898088 H 0.0 **** 0.06
33539 H 101.33800437145135 8.396750193834535 85.31495377627306 H 0.0 **** 0.06
33540 H 102.68837311136448 9.214524735321788 84.49318694163995 H 0.0 **** 0.06
33541 C 2.383406682973657 103.81135270912418 80.74247176559138 C 0.0 **** -0.24
33542 H 2.6675742269211042 104.85240154298197 80.59084231773338 H 0.0 **** 0.06
33543 H 2.2944645234792347 103.3140451688065 79.7763967600377 H 0.0 **** 0.06
33544 H 1.426376670257639 103.76847983717568 81.26293011238621 H 0.0 **** 0.06
33545 H 3.144308184258662 103.30928023545181 81.34057507137973 H 0.0 **** 0.06
33546 C 6.578144248019305 86.42057920426299 89.8257402177992 C 0.0 **** -0.24
33547 H 6.167892837023848 85.90987974623536 88.95375093375216 H 0.0 **** 0.06
33548 H 6.697326275041414 87.4808464634323 89.60238762198276 H 0.0 **** 0.06
33549 H 7.547695526990164 85.98983787058671 90.07440378739295 H 0.0 **** 0.06
33550 H 5.899483538778684 86.29986438717498 90.66919316680205 H 0.0 **** 0.06
33551 C 91.47592931179332 66.75653351976368 64.83728598478905 C 0.0 **** -0.24
33552 H 92.41653660363045 66.85601129488597 65.37878711205062 H 0.0 **** 0.06
33553 H 90.6693774931139 66.56265905084621 65.54453718201611 H 0.0 **** 0.06
33554 H 91.54860090898512 65.9275669876356 64.13363998864699 H 0.0 **** 0.06
33555 H 91.27023945204482 67.67770097730917 64.29394127669511 H 0.0 **** 0.06
33556 C 64.85322006545286 62.76746925874078 90.26285662038501 C 0.0 **** -0.24
33557 H 65.81263268842557 62.75993762057056 89.74522730917633 H 0.0 **** 0.06
33558 H 64.93798777572306 62.20332195263243 91.19185267177699 H 0.0 **** 0.06
33559 H 64.09395133520664 62.31062690356169 89.62838957863929 H 0.0 **** 0.06
33560 H 64.56933040374415 63.795804864523724 90.48691674865597 H 0.0 **** 0.06
33561 C 20.053270493454605 25.85469694768659 111.09159832640786 C 0.0 **** -0.24
33562 H 20.650080953771862 26.559434917946817 111.6703478747201 H 0.0 **** 0.06
33563 H 20.710718378849577 25.130890272799064 110.61086501565723 H 0.0 **** 0.06
33564 H 19.489246875873754 26.395355877431996 110.33201052316998 H 0.0 **** 0.06
33565 H 19.362498544895857 25.33418904971677 111.75505144616942 H 0.0 **** 0.06
33566 C 111.26476547507423 112.43813148029605 10.505064955826128 C 0.0 **** -0.24
33567 H 110.17691739042974 112.45520836221485 10.433872592492662 H 0.0 **** 0.06
33568 H 111.69488939254126 112.83620538991795 9.586705605163473 H 0.0 **** 0.06
33569 H 111.60251699441878 111.41204786071475 10.651060552396501 H 0.0 **** 0.06
33570 H 111.58246601169432 113.04871307180377 11.350792411726559 H 0.0 **** 0.06
33571 C 108.5928116496458 104.81895203736264 28.490542952218078 C 0.0 **** -0.24
33572 H 109.4436136405061 105.43317702819121 28.195400561499966 H 0.0 **** 0.06
33573 H 108.11586141783368 104.40838858431556 27.600311216743364 H 0.0 **** 0.06
33574 H 107.87604748947422 105.43133880451609 29.038733651412585 H 0.0 **** 0.06
33575 H 108.93684202891768 104.00448458963575 29.127225138511434 H 0.0 **** 0.06
33576 C 81.1674346849044 30.937950032374715 109.67383237816892 C 0.0 **** -0.24
33577 H 80.2429766604617 30.69459600226486 109.1502127049568 H 0.0 **** 0.06
33578 H 81.76870271680025 31.606642676309008 109.05700553796316 H 0.0 **** 0.06
33579 H 81.7248347271227 30.022942266831905 109.86947302898221 H 0.0 **** 0.06
33580 H 80.93110159100442 31.428758194543448 110.61819588487936 H 0.0 **** 0.06
33581 C 13.074280406478579 18.225486537862906 14.263529473402258 C 0.0 **** -0.24
33582 H 13.719835453519721 17.35035747155662 14.186139451994734 H 0.0 **** 0.06
33583 H 13.032581311375836 18.555428752826487 15.302634779373435 H 0.0 **** 0.06
33584 H 12.070758069523663 17.967127820394055 13.923960423891984 H 0.0 **** 0.06
33585 H 13.472466849033566 19.027577332666283 13.642684677258998 H 0.0 **** 0.06
33586 C 58.66802067430402 47.84331352866936 19.18858888849106 C 0.0 **** -0.24
33587 H 58.916215991147766 46.787350914272054 19.075352368084037 H 0.0 **** 0.06
33588 H 57.930916857540126 48.12435700688021 18.435309385844427 H 0.0 **** 0.06
33589 H 59.56786572546753 48.44412911888382 19.0588781818433 H 0.0 **** 0.06
33590 H 58.25582596861739 48.01468997981476 20.18258384863978 H 0.0 **** 0.06
33591 C 110.90574888132636 39.768925546168305 9.10123105630035 C 0.0 **** -0.24
33592 H 109.92769912764186 39.61485153911053 9.555253276016828 H 0.0 **** 0.06
33593 H 110.79773452006648 39.83317849549675 8.018722017688333 H 0.0 **** 0.06
33594 H 111.55919018380897 38.933808164699 9.3533635730129 H 0.0 **** 0.06
33595 H 111.33930386470414 40.69519177781527 9.479420669066926 H 0.0 **** 0.06
33596 C 104.64565499413726 32.848229532650805 106.16665858510521 C 0.0 **** -0.24
33597 H 104.58920767841175 33.84739002293378 106.59901078395211 H 0.0 **** 0.06
33598 H 105.51936439011266 32.7831123110941 105.51667155341798 H 0.0 **** 0.06
33599 H 103.74446523863125 32.653359561816956 105.58506841703405 H 0.0 **** 0.06
33600 H 104.73036560649948 32.11166895521018 106.9646341013862 H 0.0 **** 0.06
33601 C 80.5240673365359 28.914977756844735 22.49263660382215 C 0.0 **** -0.24
33602 H 79.63222277491286 29.466588820872346 22.1966841528143 H 0.0 **** 0.06
33603 H 80.81076656295596 28.231330295435612 21.693423175701724 H 0.0 **** 0.06
33604 H 80.31484615911268 28.34666173670678 23.39954170030336 H 0.0 **** 0.06
33605 H 81.33742679843834 29.615155694229657 22.682295805466765 H 0.0 **** 0.06
33606 C 88.4225862293861 64.84264081491384 22.601115030234496 C 0.0 **** -0.24
33607 H 88.51630633130696 65.76439495967006 22.025730543964983 H 0.0 **** 0.06
33608 H 88.71530297277255 63.99559633510563 21.978894753193515 H 0.0 **** 0.06
33609 H 87.38928209373955 64.71823762791598 22.92166405560232 H 0.0 **** 0.06
33610 H 89.0718836592003 64.89311440572465 23.47543458306052 H 0.0 **** 0.06
33611 C 51.81400647592898 4.768859063220866 31.54558690200153 C 0.0 **** -0.24
33612 H 52.418965022346015 3.9993238676556064 31.066415627375022 H 0.0 **** 0.06
33613 H 52.16193509020178 5.752897568259829 31.230197725844278 H 0.0 **** 0.06
33614 H 51.90417351471797 4.680191355660927 32.62796959809239 H 0.0 **** 0.06
33615 H 50.769922882468165 4.642939768418021 31.25578131931806 H 0.0 **** 0.06
33616 C 76.29621908316153 57.23673434100442 77.65183826174169 C 0.0 **** -0.24
33617 H 76.63849567700595 58.26513529509083 77.77448693552978 H 0.0 **** 0.06
33618 H 75.80836453420989 56.90465970752268 78.5686162085297 H 0.0 **** 0.06
33619 H 77.14991264752501 56.59327959671538 77.43953030496007 H 0.0 **** 0.06
33620 H 75.58847853717123 57.18666617110472 76.82469325779212 H 0.0 **** 0.06
33621 C 89.5167080286547 15.022767427837948 7.325049915142699 C 0.0 **** -0.24
33622 H 89.5498602843939 15.231220634132882 8.394246603077704 H 0.0 **** 0.06
33623 H 88.81473558890823 15.704058894072887 6.844075871690393 H 0.0 **** 0.06
33624 H 89.193019566321 13.993842540196681 7.165476135126596 H 0.0 **** 0.06
33625 H 90.5102719148858 15.161142451640927 6.896889158428962 H 0.0 **** 0.06
33626 C 3.1483938346554794 98.53610014404276 91.36987946275266 C 0.0 **** -0.24
33627 H 2.155074082091744 98.23666798743213 91.70588200300907 H 0.0 **** 0.06
33628 H 3.0643984818705974 99.41049462353419 90.72470626784676 H 0.0 **** 0.06
33629 H 3.6052814040972834 97.7165362039687 90.8147415380212 H 0.0 **** 0.06
33630 H 3.765989509569806 98.7782792681999 92.23452402567565 H 0.0 **** 0.06
33631 C 19.05474992464036 99.02646460357624 88.09612320182586 C 0.0 **** -0.24
33632 H 17.998061977823397 98.82162674996832 88.26745450408626 H 0.0 **** 0.06
33633 H 19.604669719101253 98.08631693831916 88.0541830801402 H 0.0 **** 0.06
33634 H 19.442426457316174 99.6399775176312 88.91023208720668 H 0.0 **** 0.06
33635 H 19.17337481542816 99.55862104730645 87.15206225692177 H 0.0 **** 0.06
33636 C 51.65258828099854 62.50716743200629 38.0055233252574 C 0.0 **** -0.24
33637 H 51.312679019300305 61.533236271823846 38.35807005106773 H 0.0 **** 0.06
33638 H 51.362302707417626 62.63746330214932 36.96256085547884 H 0.0 **** 0.06
33639 H 52.73821102663132 62.565928619028575 38.092124986360204 H 0.0 **** 0.06
33640 H 51.19743655419765 63.291517810375304 38.610965168949434 H 0.0 **** 0.06
33641 C 25.712874021292293 54.380578552195686 0.3146434672636076 C 0.0 **** -0.24
33642 H 26.31916259835657 54.47472279136906 1.2152651319806864 H 0.0 **** 0.06
33643 H 26.341612814736436 54.532129746654306 -0.5629539204432774 H 0.0 **** 0.06
33644 H 24.92240403907971 55.13104861910065 0.32854611023066127 H 0.0 **** 0.06
33645 H 25.26910624031524 53.38592109151608 0.2780367132454842 H 0.0 **** 0.06
33646 C 108.09931108755863 12.028161293854225 100.24077077030424 C 0.0 **** -0.24
33647 H 107.30923399369556 12.546800457831608 100.78346126352056 H 0.0 **** 0.06
33648 H 107.66458132974624 11.22353977522829 99.64691245874107 H 0.0 **** 0.06
33649 H 108.8152669467063 11.611161749229154 100.94974963857723 H 0.0 **** 0.06
33650 H 108.60930337573043 12.732023330238889 99.58125001673773 H 0.0 **** 0.06
33651 C 3.1581555486014707 110.01605938615467 20.20386865220209 C 0.0 **** -0.24
33652 H 3.274185307176978 110.8931397823236 19.56818996704837 H 0.0 **** 0.06
33653 H 2.1028634253745224 109.87088235672061 20.43439748078316 H 0.0 **** 0.06
33654 H 3.7153749844082427 110.16200407309404 21.129074586696504 H 0.0 **** 0.06
33655 H 3.5412868216085513 109.13731413141653 19.683709372135837 H 0.0 **** 0.06
33656 C 29.11239539790688 31.738592108996556 35.68724494740604 C 0.0 **** -0.24
33657 H 28.287689033046604 32.348641106004976 36.05579077096805 H 0.0 **** 0.06
33658 H 30.051222267654566 32.11293313474263 36.09703315052146 H 0.0 **** 0.06
33659 H 29.144244122863142 31.79066458600866 34.59920291013699 H 0.0 **** 0.06
33660 H 28.96626429816547 30.704778264021968 35.998352578104 H 0.0 **** 0.06
33661 C 93.51618376355594 10.358397488154083 58.224757930427074 C 0.0 **** -0.24
33662 H 92.52479168764114 10.08171439029313 57.86601623344666 H 0.0 **** 0.06
33663 H 93.42924775281645 10.82145756330766 59.20846061646148 H 0.0 **** 0.06
33664 H 93.9705498162547 11.063833625629186 57.52953156616533 H 0.0 **** 0.06
33665 H 94.1380654796292 9.465656228240249 58.29592395231293 H 0.0 **** 0.06
33666 C 12.980206611710145 103.23274627194218 59.07796763716158 C 0.0 **** -0.24
33667 H 12.630439174624286 104.09326814897892 59.649035301334834 H 0.0 **** 0.06
33668 H 12.548157155616195 103.26112068939423 58.07719113764938 H 0.0 **** 0.06
33669 H 12.674049049890357 102.3149081402641 59.58034312016201 H 0.0 **** 0.06
33670 H 14.067546055927096 103.26267317688433 59.00657636121042 H 0.0 **** 0.06
33671 C 23.114514601297117 66.50290908844676 57.88759277640545 C 0.0 **** -0.24
33672 H 23.99056079879125 66.75123798460922 58.48572582177558 H 0.0 **** 0.06
33673 H 22.214361246562078 66.823979252003 58.41263404180193 H 0.0 **** 0.06
33674 H 23.077677744009918 65.42489828121049 57.72840680044211 H 0.0 **** 0.06
33675 H 23.17595792802348 67.01009842651038 56.92525602335663 H 0.0 **** 0.06
33676 C 75.11577048187405 79.52360575223955 69.53875664142797 C 0.0 **** -0.24
33677 H 76.04689475044813 78.97712516090664 69.6843584184879 H 0.0 **** 0.06
33678 H 74.63740726130487 79.18594197018794 68.61812570557197 H 0.0 **** 0.06
33679 H 75.32780525868372 80.59055420627226 69.46879488808509 H 0.0 **** 0.06
33680 H 74.45051423342699 79.33983790702851 70.3828205792451 H 0.0 **** 0.06
33681 C 57.3468350138408 59.20487003879191 8.188206896030891 C 0.0 **** -0.24
33682 H 56.539388868240415 58.50960197642428 8.418073028692575 H 0.0 **** 0.06
33683 H 58.05149024794742 59.23033963806358 9.020382226757121 H 0.0 **** 0.06
33684 H 56.93379373570315 60.200776922482476 8.02968957653438 H 0.0 **** 0.06
33685 H 57.86245472094699 58.87685234411805 7.285827220262291 H 0.0 **** 0.06
33686 C 102.32591607479603 13.197251258306839 44.96552399613168 C 0.0 **** -0.24
33687 H 101.50600111470817 12.495823275569144 45.12313011790522 H 0.0 **** 0.06
33688 H 102.41007060609252 13.424411369168315 43.902510486605536 H 0.0 **** 0.06
33689 H 103.25618719087228 12.752001585820572 45.3178658075652 H 0.0 **** 0.06
33690 H 102.1290140148393 14.115527846439647 45.51990937353278 H 0.0 **** 0.06
33691 C 27.251103957966997 61.20869455244419 0.23390873867023743 C 0.0 **** -0.24
33692 H 27.830207155350287 60.370927084784604 0.6228683373558397 H 0.0 **** 0.06
33693 H 27.85147693400807 62.11727119363868 0.2791874437699704 H 0.0 **** 0.06
33694 H 26.350298370798235 61.33735472014474 0.8356531681434802 H 0.0 **** 0.06
33695 H 26.971499697938896 61.00848621060718 -0.7999333237264921 H 0.0 **** 0.06
33696 C 110.8981993402635 88.88490367985258 29.535176460540654 C 0.0 **** -0.24
33697 H 111.36735806271383 88.90032884901814 30.519516144475602 H 0.0 **** 0.06
33698 H 111.66732392264085 88.79329590868014 28.76787742091659 H 0.0 **** 0.06
33699 H 110.34277112888712 89.8104959929417 29.384954145807654 H 0.0 **** 0.06
33700 H 110.21644625306959 88.03682996215929 29.47100412248038 H 0.0 **** 0.06
33701 C 4.090602473822116 74.77579250441605 54.91172922415734 C 0.0 **** -0.24
33702 H 4.313126919530362 75.24384728189645 55.86987790946864 H 0.0 **** 0.06
33703 H 4.632135836877069 73.8326575749376 54.833937505296745 H 0.0 **** 0.06
33704 H 4.397067397864248 75.43949946196994 54.10330501160999 H 0.0 **** 0.06
33705 H 3.0195281200722093 74.5864424999088 54.84021210751567 H 0.0 **** 0.06
33706 C 84.76064963400847 94.24402342779265 86.61857746519354 C 0.0 **** -0.24
33707 H 84.4824973220189 93.3083250443903 87.10395797424297 H 0.0 **** 0.06
33708 H 84.10522814926304 94.41907225594701 85.76542509076216 H 0.0 **** 0.06
33709 H 85.79350091240971 94.18240141550774 86.2767671158465 H 0.0 **** 0.06
33710 H 84.66080109161976 95.06457962619234 87.3298124771664 H 0.0 **** 0.06
33711 C 42.72030780772168 10.39732136021857 96.36922731323705 C 0.0 **** -0.24
33712 H 42.120032187565165 10.501034009513774 97.2736693028873 H 0.0 **** 0.06
33713 H 42.813536028442705 9.342047793578871 96.11366017902722 H 0.0 **** 0.06
33714 H 43.71036622795078 10.820019224693283 96.54033322555219 H 0.0 **** 0.06
33715 H 42.23561508536669 10.9290325952648 95.54949223249375 H 0.0 **** 0.06
33716 C 84.75776634853531 18.114375013636913 24.907501543045953 C 0.0 **** -0.24
33717 H 84.59788744377394 19.082395139733777 25.381796948222714 H 0.0 **** 0.06
33718 H 84.23162607468706 17.343527300689775 25.46919141826521 H 0.0 **** 0.06
33719 H 85.82430122618578 17.88972434157434 24.892210191234653 H 0.0 **** 0.06
33720 H 84.37882106538157 18.143471192799673 23.885850290927777 H 0.0 **** 0.06
33721 C 21.03870221616333 45.3658804860896 54.347784687394814 C 0.0 **** -0.24
33722 H 20.300983776543006 45.29258830800125 55.146006507401665 H 0.0 **** 0.06
33723 H 21.93227498284233 44.807357161697006 54.6274341573842 H 0.0 **** 0.06
33724 H 21.29949287137734 46.41279978485606 54.1886316846922 H 0.0 **** 0.06
33725 H 20.622422731274412 44.9515077904857 53.430220530467714 H 0.0 **** 0.06
33726 C 101.60401609647954 80.24493322218177 79.75626044000589 C 0.0 **** -0.24
33727 H 102.51538752905395 79.65418189057186 79.6597751524761 H 0.0 **** 0.06
33728 H 101.80631091406639 81.27484138859299 79.46429418201754 H 0.0 **** 0.06
33729 H 101.26306097724762 80.22032618155018 80.79155147293991 H 0.0 **** 0.06
33730 H 100.83175625896138 79.82827136165923 79.11000042959242 H 0.0 **** 0.06
33731 C 80.54593850117035 78.91336175356057 93.86621025033301 C 0.0 **** -0.24
33732 H 81.11677338556362 79.67164763139323 93.32901519530026 H 0.0 **** 0.06
33733 H 80.96044673412129 77.9284752705984 93.65134535428265 H 0.0 **** 0.06
33734 H 79.50455774982052 78.94720613495124 93.54631484593543 H 0.0 **** 0.06
33735 H 80.60487303046204 79.1071621961938 94.93744576427628 H 0.0 **** 0.06
33736 C 74.86481714034443 82.0174468393721 63.09409434372958 C 0.0 **** -0.24
33737 H 73.88296294240973 82.49033646323608 63.09784976269822 H 0.0 **** 0.06
33738 H 75.63015704061633 82.77119650097745 62.90486230477063 H 0.0 **** 0.06
33739 H 74.89994086002838 81.25890337822301 62.310755558214794 H 0.0 **** 0.06
33740 H 75.04702315906098 81.5494470451739 64.06082981696716 H 0.0 **** 0.06
33741 C 20.258935094744093 85.9832419054778 19.831693981819377 C 0.0 **** -0.24
33742 H 19.444661048192007 85.34338674208803 20.168681249269138 H 0.0 **** 0.06
33743 H 20.874195507446615 86.26810460685087 20.6850615730451 H 0.0 **** 0.06
33744 H 19.84785821811118 86.87776604235947 19.36420522570021 H 0.0 **** 0.06
33745 H 20.869409202276174 85.44281276293353 19.10780439574357 H 0.0 **** 0.06
33746 C 97.80299418269095 112.62336445127723 43.316167756562194 C 0.0 **** -0.24
33747 H 98.80044047851055 112.78251220967586 43.72420475159312 H 0.0 **** 0.06
33748 H 97.17957877608785 112.13082516096104 44.06257426970578 H 0.0 **** 0.06
33749 H 97.87014411815693 111.99619356398242 42.426245821195046 H 0.0 **** 0.06
33750 H 97.36169053879212 113.58443752891621 43.05033307414116 H 0.0 **** 0.06
33751 C 0.875186069269561 63.58971791819021 56.43755305521859 C 0.0 **** -0.24
33752 H 0.21529335671187777 62.90943140480294 55.898613085034356 H 0.0 **** 0.06
33753 H 0.4097475869109344 64.57333926669617 56.49858123172601 H 0.0 **** 0.06
33754 H 1.8249971735059898 63.66860403664905 55.90842145532241 H 0.0 **** 0.06
33755 H 1.050204253081458 63.207186897596905 57.442685382378556 H 0.0 **** 0.06
33756 C 98.62879020872174 32.01324376906905 103.06259172335373 C 0.0 **** -0.24
33757 H 99.65118229097243 32.32791244904536 102.85542417845636 H 0.0 **** 0.06
33758 H 97.93924750809398 32.586426015196366 102.44195863669148 H 0.0 **** 0.06
33759 H 98.40133107957539 32.18659289323955 104.11467054497072 H 0.0 **** 0.06
33760 H 98.52271841935885 30.951338131168484 102.83850772469145 H 0.0 **** 0.06
33761 C 52.905048298992 47.89935242612968 39.24941019022977 C 0.0 **** -0.24
33762 H 53.15129165331945 46.8972401825948 38.89749019064884 H 0.0 **** 0.06
33763 H 53.56221020653106 48.1651619794109 40.07809346051932 H 0.0 **** 0.06
33764 H 51.86831375505528 47.921359454017676 39.58595527204096 H 0.0 **** 0.06
33765 H 53.038593658054424 48.61273328828106 38.43576050499017 H 0.0 **** 0.06
33766 C 82.54156468861098 12.497995798316225 76.22372351117883 C 0.0 **** -0.24
33767 H 82.15042813613636 11.714180149570424 75.57531499952495 H 0.0 **** 0.06
33768 H 83.5791880589808 12.703800251805916 75.95891090397839 H 0.0 **** 0.06
33769 H 82.48936822423275 12.170644135440568 77.26223823148484 H 0.0 **** 0.06
33770 H 81.94726531677861 13.403371210941131 76.09743000084177 H 0.0 **** 0.06
33771 C 27.50556192930523 75.8696351299674 95.78469313995205 C 0.0 **** -0.24
33772 H 28.06584473016997 75.72348103898963 94.86013342468436 H 0.0 **** 0.06
33773 H 28.087570653489138 75.49128880099491 96.62559048224824 H 0.0 **** 0.06
33774 H 26.559962669597198 75.33078764546855 95.72476970250207 H 0.0 **** 0.06
33775 H 27.310589336481783 76.93241948456674 95.92588611763509 H 0.0 **** 0.06
33776 C 15.591736540814793 0.1438536849945251 111.58853990314634 C 0.0 **** -0.24
33777 H 15.824799375289402 1.0622993553996594 112.12628295933348 H 0.0 **** 0.06
33778 H 14.753706858522278 -0.35811928582054975 112.07324170888712 H 0.0 **** 0.06
33779 H 16.461770024364995 -0.5112978659576015 111.5948220832631 H 0.0 **** 0.06
33780 H 15.32521452284331 0.38432255645011537 110.5589894347573 H 0.0 **** 0.06
33781 C 68.34963675018108 29.69146168207203 100.59876284273446 C 0.0 **** -0.24
33782 H 69.25787421080489 29.58779145746678 100.00474380938601 H 0.0 **** 0.06
33783 H 67.83181562631572 28.733082953027576 100.64159864048432 H 0.0 **** 0.06
33784 H 67.69891969161284 30.43614839482933 100.13966978421303 H 0.0 **** 0.06
33785 H 68.61060530451326 30.009954891410587 101.60790994233335 H 0.0 **** 0.06
33786 C 21.860460552333112 45.63444998831928 110.79308751214968 C 0.0 **** -0.24
33787 H 21.675039049680706 46.19236784466564 109.8753735548404 H 0.0 **** 0.06
33788 H 22.556157375727153 44.81956755956751 110.58818252117285 H 0.0 **** 0.06
33789 H 20.921299227033202 45.22619022656597 111.16519006287685 H 0.0 **** 0.06
33790 H 22.290531175802236 46.29968374500693 111.5417073673627 H 0.0 **** 0.06
33791 C 31.76983407044422 62.583647004997374 17.661268538909724 C 0.0 **** -0.24
33792 H 31.365503888252583 63.59314087335048 17.59519618072494 H 0.0 **** 0.06
33793 H 30.988217932880026 61.86227297439379 17.42220969452839 H 0.0 **** 0.06
33794 H 32.13363252994279 62.4044391914571 18.6731517562053 H 0.0 **** 0.06
33795 H 32.59273391176671 62.47521716221917 16.954966059794117 H 0.0 **** 0.06
33796 C 38.90728645342412 89.31326673708517 50.23167364250895 C 0.0 **** -0.24
33797 H 38.606532958277995 88.2930217361965 50.46651139969714 H 0.0 **** 0.06
33798 H 39.381715376549295 89.7628876577341 51.104830387762405 H 0.0 **** 0.06
33799 H 38.0296601243096 89.8962872901634 49.95474697600508 H 0.0 **** 0.06
33800 H 39.61345895360617 89.30187154029232 49.40085537479433 H 0.0 **** 0.06
33801 C 7.242942532661814 76.62041344897597 97.95799212091839 C 0.0 **** -0.24
33802 H 8.230957218004903 77.04172176018784 97.77300653690929 H 0.0 **** 0.06
33803 H 6.937114557019029 76.0202827176642 97.10083824835547 H 0.0 **** 0.06
33804 H 6.527463604528705 77.42816587408973 98.11039056016412 H 0.0 **** 0.06
33805 H 7.277998287056505 75.99200022760294 98.84852250664642 H 0.0 **** 0.06
33806 C 78.03413820077927 30.658271025487238 39.72860760659478 C 0.0 **** -0.24
33807 H 78.14700724892776 29.947423819622628 38.91001477767071 H 0.0 **** 0.06
33808 H 76.97984978649362 30.749179408038458 39.988222597178094 H 0.0 **** 0.06
33809 H 78.41775924417215 31.630830191793876 39.41939573139257 H 0.0 **** 0.06
33810 H 78.59372150965291 30.30606396602269 40.59551540560852 H 0.0 **** 0.06
33811 C 67.2933260943465 88.79496620454887 105.49647629859919 C 0.0 **** -0.24
33812 H 67.68677096871411 88.81871031198261 104.47980979118432 H 0.0 **** 0.06
33813 H 66.44507084449086 88.11247636726699 105.540917242901 H 0.0 **** 0.06
33814 H 66.97067509710254 89.79565402017062 105.78378730619556 H 0.0 **** 0.06
33815 H 68.07107094042135 88.4545654681387 106.17950824280553 H 0.0 **** 0.06
33816 C 100.95095680422361 41.64891401234516 60.77162770433814 C 0.0 **** -0.24
33817 H 100.92405614821081 42.72805825220814 60.917988130262835 H 0.0 **** 0.06
33818 H 100.8348184677427 41.42253914239811 59.7111255740873 H 0.0 **** 0.06
33819 H 100.14003134072925 41.18607058769666 61.33352112411439 H 0.0 **** 0.06
33820 H 101.90633492004059 41.259017042841464 61.123847010592335 H 0.0 **** 0.06
33821 C 95.90553932427164 103.236629515794 80.3975685571368 C 0.0 **** -0.24
33822 H 96.28420857114398 102.21824590664525 80.483229519816 H 0.0 **** 0.06
33823 H 94.84718510188199 103.20981023550311 80.13499180459473 H 0.0 **** 0.06
33824 H 96.4592812832428 103.76624826450242 79.62185388244853 H 0.0 **** 0.06
33825 H 96.0307113630823 103.75215839113878 81.34956451732086 H 0.0 **** 0.06
33826 C 85.12032558109192 68.18942893102931 39.53804658383706 C 0.0 **** -0.24
33827 H 85.7836484212352 68.46540050745583 40.35730102840222 H 0.0 **** 0.06
33828 H 84.65456999299658 69.08676989839222 39.12945954744916 H 0.0 **** 0.06
33829 H 84.34772949793043 67.51540895512971 39.907790743537106 H 0.0 **** 0.06
33830 H 85.69468867492219 67.68981280844008 38.75830744658788 H 0.0 **** 0.06
33831 C 83.94527558699747 107.24778810954365 54.07156443322475 C 0.0 **** -0.24
33832 H 83.49330548230469 107.13408668745592 53.086179530937784 H 0.0 **** 0.06
33833 H 83.90604151812155 108.29475236705656 54.37036010888812 H 0.0 **** 0.06
33834 H 84.98328644871532 106.91708365744677 54.03572581145647 H 0.0 **** 0.06
33835 H 83.39715204312233 106.64272664786733 54.793961564045446 H 0.0 **** 0.06
33836 C 67.22491126640105 52.814091380512195 67.34801492164706 C 0.0 **** -0.24
33837 H 67.06261489420291 53.82938571680921 67.71068518706659 H 0.0 **** 0.06
33838 H 68.24456974921935 52.72054405924678 66.9748784276602 H 0.0 **** 0.06
33839 H 66.52205249489799 52.5994227100326 66.54268559155616 H 0.0 **** 0.06
33840 H 67.06929933447233 52.10770958762208 68.16434522436396 H 0.0 **** 0.06
33841 C 20.550862330945904 77.92706422079712 90.03745648365307 C 0.0 **** -0.24
33842 H 20.305677745704372 77.58587569360938 89.03218873809692 H 0.0 **** 0.06
33843 H 19.642733929089786 78.26026470721456 90.53981654409452 H 0.0 **** 0.06
33844 H 21.258245583337896 78.75465161309077 89.9772860756791 H 0.0 **** 0.06
33845 H 20.99818408350518 77.10740419091769 90.60029225901624 H 0.0 **** 0.06
33846 C 24.119585773483184 99.12135343308051 37.76869186954275 C 0.0 **** -0.24
33847 H 23.71499413507783 98.17166543706324 38.118497098604735 H 0.0 **** 0.06
33848 H 25.202265608391624 99.04062147190194 37.67120791347725 H 0.0 **** 0.06
33849 H 23.875276994726274 99.905724479638 38.4845589181308 H 0.0 **** 0.06
33850 H 23.684634305770853 99.36554726543991 36.79941482218999 H 0.0 **** 0.06
33851 C 25.650277424073582 65.39878763779694 62.48884143510489 C 0.0 **** -0.24
33852 H 24.5664668628348 65.48870990392504 62.42495896547436 H 0.0 **** 0.06
33853 H 25.912701558175243 64.77304138704437 63.34228131693229 H 0.0 **** 0.06
33854 H 26.09036687447557 66.38821579527394 62.61501834626998 H 0.0 **** 0.06
33855 H 26.032158875213938 64.94613090074165 61.57443411033029 H 0.0 **** 0.06
33856 C 32.21846628739377 76.69219048304313 93.59766730648482 C 0.0 **** -0.24
33857 H 32.38068760995748 76.27289672167177 92.60422006167559 H 0.0 **** 0.06
33858 H 33.15679736037811 76.68467615387436 94.1519810299707 H 0.0 **** 0.06
33859 H 31.478360375344323 76.09268304140534 94.12835600566132 H 0.0 **** 0.06
33860 H 31.859154023857457 77.71674829223917 93.50483765017447 H 0.0 **** 0.06
33861 C 6.131151089789995 47.56912783614799 51.012463419458214 C 0.0 **** -0.24
33862 H 6.420535275123285 46.58651353363789 51.3835149661494 H 0.0 **** 0.06
33863 H 6.959072478337845 48.26581931632771 51.14368286402801 H 0.0 **** 0.06
33864 H 5.263801367044209 47.926843009157075 51.56833999613107 H 0.0 **** 0.06
33865 H 5.878417613563414 47.4984536541969 49.954502955942615 H 0.0 **** 0.06
33866 C 38.917930663668514 11.337902570228508 54.17622116382096 C 0.0 **** -0.24
33867 H 39.88098304009546 11.441895558490785 54.676122127067835 H 0.0 **** 0.06
33868 H 38.41386623871159 10.44318217376906 54.54000240515828 H 0.0 **** 0.06
33869 H 39.0748791905224 11.255831020026307 53.10107384120089 H 0.0 **** 0.06
33870 H 38.302717372705956 12.213039072131721 54.38780130686534 H 0.0 **** 0.06
33871 C 43.60371686864437 74.5646430545342 44.849978435773515 C 0.0 **** -0.24
33872 H 44.445028519163145 74.84860727528198 45.482551313280574 H 0.0 **** 0.06
33873 H 42.67909922015724 74.63907832430579 45.42207892069472 H 0.0 **** 0.06
33874 H 43.73751261224203 73.53814344019733 44.507699795464426 H 0.0 **** 0.06
33875 H 43.55463860497406 75.23201158339873 43.99012792237533 H 0.0 **** 0.06
33876 C 94.45724974955695 82.9991366078076 68.5519437596688 C 0.0 **** -0.24
33877 H 93.64816159865933 83.37132561469593 69.17993744127688 H 0.0 **** 0.06
33878 H 94.03855367569494 82.47251138082873 67.69435652947061 H 0.0 **** 0.06
33879 H 95.07994262715212 82.31501672458819 69.13040645057777 H 0.0 **** 0.06
33880 H 95.06267755078471 83.83624571253318 68.20568105251581 H 0.0 **** 0.06
33881 C 11.470710412817027 110.83439673953603 32.5779540282998 C 0.0 **** -0.24
33882 H 10.514459466184093 110.31151945263409 32.53295449224846 H 0.0 **** 0.06
33883 H 12.021160219598187 110.6644969709105 31.651634120186706 H 0.0 **** 0.06
33884 H 12.050837212886904 110.45781357024961 33.419794478071374 H 0.0 **** 0.06
33885 H 11.295064034217319 111.90288069383249 32.70585563987497 H 0.0 **** 0.06
33886 C 12.443366340889384 23.064696958403516 51.9959943815054 C 0.0 **** -0.24
33887 H 11.930935451290736 22.372628403424216 52.66388513684177 H 0.0 **** 0.06
33888 H 11.946374934482947 24.035232683445855 52.02823479933858 H 0.0 **** 0.06
33889 H 12.414867586122796 22.676192445599497 50.97862012380233 H 0.0 **** 0.06
33890 H 13.479958013104124 23.176205772018847 52.31427081483611 H 0.0 **** 0.06
33891 C 22.10442966002003 41.66759799616668 79.54581664428048 C 0.0 **** -0.24
33892 H 22.796194017761366 41.724804230067946 80.38565701923477 H 0.0 **** 0.06
33893 H 22.17285440784383 42.58205290118468 78.95582027014609 H 0.0 **** 0.06
33894 H 21.08801577918905 41.55090056840723 79.91962251498126 H 0.0 **** 0.06
33895 H 22.362919489284394 40.81210703783134 78.92027150198402 H 0.0 **** 0.06
33896 C 77.98189227641728 75.31216933936318 36.02864123731129 C 0.0 **** -0.24
33897 H 77.82240070659302 75.63904221349819 35.00077889648318 H 0.0 **** 0.06
33898 H 77.69923916815009 74.26438628755409 36.12426140983487 H 0.0 **** 0.06
33899 H 77.3728605889379 75.91726989694837 36.70058999705722 H 0.0 **** 0.06
33900 H 79.03472243659283 75.42899822471347 36.28744253257892 H 0.0 **** 0.06
33901 C 108.41811376370778 1.9071337535975488 31.286844122521316 C 0.0 **** -0.24
33902 H 108.94130463497052 0.9517361543470884 31.24837175466618 H 0.0 **** 0.06
33903 H 109.02123661187979 2.629160652390567 31.836928073149323 H 0.0 **** 0.06
33904 H 107.4598596084598 1.775580779825873 31.789567892886005 H 0.0 **** 0.06
33905 H 108.25008453496315 2.2698867364835564 30.273044924653377 H 0.0 **** 0.06
33906 C 109.91442583137564 25.531696438348447 25.473687379275418 C 0.0 **** -0.24
33907 H 110.84648402867043 26.019615435260462 25.758065533125247 H 0.0 **** 0.06
33908 H 109.88316315624883 24.530278358532364 25.903284724941898 H 0.0 **** 0.06
33909 H 109.85806109541997 25.462129936881137 24.386570087214878 H 0.0 **** 0.06
33910 H 109.07163818060926 26.11338968425183 25.844501649473187 H 0.0 **** 0.06
33911 C 103.50743910824491 7.308977847800993 29.82012762039524 C 0.0 **** -0.24
33912 H 103.59106017837564 6.3611019887261 30.352244422299044 H 0.0 **** 0.06
33913 H 103.12166120046928 7.129469188636159 28.816140822728087 H 0.0 **** 0.06
33914 H 104.4899453642337 7.776228361993301 29.755175407971066 H 0.0 **** 0.06
33915 H 102.8263792927304 7.968492012253341 30.35800398615347 H 0.0 **** 0.06
33916 C 83.75106628055764 90.18502755488919 96.69144170587322 C 0.0 **** -0.24
33917 H 82.83987211118003 90.77754600560729 96.61128908575148 H 0.0 **** 0.06
33918 H 83.53804620679017 89.15057341564662 96.42204336027788 H 0.0 **** 0.06
33919 H 84.12259693298282 90.22501614765315 97.71539984842684 H 0.0 **** 0.06
33920 H 84.50602802869454 90.58839670767904 96.01569726948753 H 0.0 **** 0.06
33921 C 36.114107609149016 69.44160116623374 61.44513556032996 C 0.0 **** -0.24
33922 H 36.90279723158284 69.39881406975977 62.19563624483155 H 0.0 **** 0.06
33923 H 36.42183842593454 70.09959687498755 60.63214920756815 H 0.0 **** 0.06
33924 H 35.201427238288886 69.8275229300709 61.8985495970293 H 0.0 **** 0.06
33925 H 35.92961961552055 68.44111988056136 61.05406810159704 H 0.0 **** 0.06
33926 C 73.97163497061266 105.57579298399617 32.09940814859365 C 0.0 **** -0.24
33927 H 74.6806424400879 106.23243592934355 32.60525094395456 H 0.0 **** 0.06
33928 H 72.96474302392281 105.78019446476043 32.46267251787117 H 0.0 **** 0.06
33929 H 74.22905650453814 104.53722768405592 32.304543705670994 H 0.0 **** 0.06
33930 H 74.01492008879185 105.7554474874893 31.02446994808443 H 0.0 **** 0.06
33931 C 56.48732285419832 87.62760704078755 53.01748010684332 C 0.0 **** -0.24
33932 H 56.426445552355936 88.25398288910148 53.90808198428931 H 0.0 **** 0.06
33933 H 56.66768204834254 86.5938039533016 53.312639629513 H 0.0 **** 0.06
33934 H 57.30563893896044 87.97354481465368 52.386384866035485 H 0.0 **** 0.06
33935 H 55.550328344730936 87.69125790986118 52.46473313592861 H 0.0 **** 0.06
33936 C 97.52405117752056 32.29527521859882 112.58278527602339 C 0.0 **** -0.24
33937 H 96.61944502228494 31.855667263800513 112.1631903371348 H 0.0 **** 0.06
33938 H 97.36312452147095 32.519534704392015 113.63769178183486 H 0.0 **** 0.06
33939 H 97.7620473925937 33.21481203615144 112.04773083625348 H 0.0 **** 0.06
33940 H 98.35039952487938 31.591702610213417 112.48207093757962 H 0.0 **** 0.06
33941 C 49.8867483677231 32.13005727997796 109.10030723625334 C 0.0 **** -0.24
33942 H 49.75176469158316 32.38223770854901 108.0488906763816 H 0.0 **** 0.06
33943 H 48.96411212009366 32.33599521215555 109.64434069072882 H 0.0 **** 0.06
33944 H 50.696033667914605 32.72928214321166 109.51683001108441 H 0.0 **** 0.06
33945 H 50.13302760132643 31.07203554251521 109.19172906047459 H 0.0 **** 0.06
33946 C 55.213879380125036 101.82548141021172 101.03378885642752 C 0.0 **** -0.24
33947 H 54.87023133445933 101.5753672230085 100.029057340478 H 0.0 **** 0.06
33948 H 54.40676707248679 101.65287743819746 101.74611814238585 H 0.0 **** 0.06
33949 H 55.50851351804596 102.87422697127494 101.06540907866093 H 0.0 **** 0.06
33950 H 56.06764952276001 101.19930231812464 101.29166798537148 H 0.0 **** 0.06
33951 C 86.14866125783797 84.70112519493966 63.182297212162155 C 0.0 **** -0.24
33952 H 86.47121278851046 83.68110573520477 62.97418862582137 H 0.0 **** 0.06
33953 H 85.70674912432659 84.74620957365545 64.17758081181793 H 0.0 **** 0.06
33954 H 85.40776717645755 85.00542190559014 62.44163738813805 H 0.0 **** 0.06
33955 H 87.00690672243934 85.37095203207542 63.13396408334293 H 0.0 **** 0.06
33956 C 74.4777368939051 86.44704307107841 2.784224634426664 C 0.0 **** -0.24
33957 H 75.318618069356 86.26822061616468 3.4543431082340987 H 0.0 **** 0.06
33958 H 74.77730061604359 86.22520197434181 1.7600325217806017 H 0.0 **** 0.06
33959 H 74.17209683567697 87.49077937407287 2.855995560332076 H 0.0 **** 0.06
33960 H 73.6446638080429 85.80399161378412 3.066500024248171 H 0.0 **** 0.06
33961 C 5.186339812966594 42.99999027398306 63.072133079869786 C 0.0 **** -0.24
33962 H 4.945313448738915 42.0895935090939 62.52356093560917 H 0.0 **** 0.06
33963 H 5.745070522542804 42.74391586505317 63.973325280796075 H 0.0 **** 0.06
33964 H 4.264962113713821 43.512129367588074 63.34904653672294 H 0.0 **** 0.06
33965 H 5.790978779492988 43.65441547826791 62.44362865994185 H 0.0 **** 0.06
33966 C 111.01090631416368 72.50406873222323 26.149639801280955 C 0.0 **** -0.24
33967 H 110.2497871818735 72.96776399437002 25.522862562645372 H 0.0 **** 0.06
33968 H 111.98850199538141 72.91933109098741 25.90164719217873 H 0.0 **** 0.06
33969 H 111.0186671360847 71.42778730361835 25.976046965403896 H 0.0 **** 0.06
33970 H 110.78760001632213 72.70173303085116 27.198133731620857 H 0.0 **** 0.06
33971 C 112.25036908633177 112.23018345812966 40.73113122688824 C 0.0 **** -0.24
33972 H 112.95970990323539 112.24700456846641 41.55832529265897 H 0.0 **** 0.06
33973 H 112.155530653114 113.2331380398098 40.313146472804775 H 0.0 **** 0.06
33974 H 111.27798450077637 111.89423818113342 41.093675674229544 H 0.0 **** 0.06
33975 H 112.60643317605789 111.54715041837557 39.96040651816754 H 0.0 **** 0.06
33976 C 46.517229440097935 88.93062308662434 86.96081816024457 C 0.0 **** -0.24
33977 H 45.91118815285472 88.16332872001996 86.47800374301573 H 0.0 **** 0.06
33978 H 47.56893889937626 88.76122522058552 86.7298290515694 H 0.0 **** 0.06
33979 H 46.36924180683391 88.88465049571849 88.03952782651137 H 0.0 **** 0.06
33980 H 46.21738870562635 89.91283742778498 86.59387950157546 H 0.0 **** 0.06
33981 C 78.58203959201828 105.89689671572302 32.94455715577158 C 0.0 **** -0.24
33982 H 77.49718841817526 105.80074769410894 32.88902563377604 H 0.0 **** 0.06
33983 H 78.91301612714346 105.68510201890334 33.961943025159826 H 0.0 **** 0.06
33984 H 78.8706063225496 106.91186527881703 32.67165344261676 H 0.0 **** 0.06
33985 H 79.04446664446121 105.18934953101194 32.25626099962258 H 0.0 **** 0.06
33986 C 14.35715589162183 98.16373707558287 11.726895887077461 C 0.0 **** -0.24
33987 H 13.406445633520761 98.21964099223467 12.257339249487359 H 0.0 **** 0.06
33988 H 15.175865458934453 98.16865458875844 12.44775367935911 H 0.0 **** 0.06
33989 H 14.453707928148674 99.02139900676076 11.061704888133548 H 0.0 **** 0.06
33990 H 14.39360684916673 97.24410686692548 11.14337042456225 H 0.0 **** 0.06
33991 C 107.89962508548398 17.145425413415524 107.87907119694772 C 0.0 **** -0.24
33992 H 106.89921865120444 17.45236499076691 108.18394731038434 H 0.0 **** 0.06
33993 H 108.05663102624625 17.408805228824576 106.83278603847796 H 0.0 **** 0.06
33994 H 108.00132699510493 16.066609764066015 108.00238372335691 H 0.0 **** 0.06
33995 H 108.63997954080644 17.652473048921024 108.49685942637655 H 0.0 **** 0.06
33996 C 34.16565113796373 17.4403115303262 91.69805907733706 C 0.0 **** -0.24
33997 H 35.2198937319794 17.62877868761609 91.49076417558425 H 0.0 **** 0.06
33998 H 33.62675548163768 18.38699447729533 91.72662866359204 H 0.0 **** 0.06
33999 H 34.07043871728175 16.93860750830879 92.66064258834044 H 0.0 **** 0.06
34000 H 33.749628658454014 16.807472150103933 90.91551394619646 H 0.0 **** 0.06
34001 C 22.945849868901135 7.504839310193134 68.30179661119189 C 0.0 **** -0.24
34002 H 22.638759348870437 6.703650159726834 67.62951188615372 H 0.0 **** 0.06
34003 H 22.653478133801713 8.46569375344707 67.87801611494137 H 0.0 **** 0.06
34004 H 24.02859771315562 7.478149745127396 68.4287581147396 H 0.0 **** 0.06
34005 H 22.46350277464323 7.372688665873312 69.27023807655473 H 0.0 **** 0.06
34006 C 23.347999997604205 110.18951497336172 79.39428366964776 C 0.0 **** -0.24
34007 H 23.316123094564404 110.75175835124655 78.46094630015969 H 0.0 **** 0.06
34008 H 23.894630348627686 109.25900478963865 79.23885044490183 H 0.0 **** 0.06
34009 H 22.332075960974436 109.96463469109318 79.71778568838016 H 0.0 **** 0.06
34010 H 23.85017224829184 110.78300515311663 80.158614655301 H 0.0 **** 0.06
34011 C 52.17933294457262 75.3647598253122 59.92185885364865 C 0.0 **** -0.24
34012 H 53.1055339120243 74.82470958775096 60.11408477531764 H 0.0 **** 0.06
34013 H 52.22631199961697 76.34637125137178 60.39309589696975 H 0.0 **** 0.06
34014 H 51.3402371802479 74.80379774552972 60.33211142746959 H 0.0 **** 0.06
34015 H 52.045097855384654 75.48342954445886 58.84603549109557 H 0.0 **** 0.06
34016 C 73.1276233707004 66.99168078900604 48.74719245793406 C 0.0 **** -0.24
34017 H 73.7173220364244 66.67228046742903 47.88811429535298 H 0.0 **** 0.06
34018 H 72.77529846092142 66.11578980593961 49.29227185763309 H 0.0 **** 0.06
34019 H 72.2729829473742 67.5754640681385 48.40416146251363 H 0.0 **** 0.06
34020 H 73.74533671076102 67.60450958971617 49.40445917580851 H 0.0 **** 0.06
34021 C 41.92260792784967 19.278072600114015 80.18034416582762 C 0.0 **** -0.24
34022 H 43.00147273314414 19.308389154449333 80.02369135797298 H 0.0 **** 0.06
34023 H 41.51920257130965 20.289024042881692 80.12168673764936 H 0.0 **** 0.06
34024 H 41.710062218868586 18.857846592215 81.16287088714398 H 0.0 **** 0.06
34025 H 41.461506851506925 18.65821365892664 79.4119809508378 H 0.0 **** 0.06
34026 C 22.129686421842564 21.382135737027426 75.80566003943306 C 0.0 **** -0.24
34027 H 21.170558081490185 21.582519024545178 75.32725769562845 H 0.0 **** 0.06
34028 H 21.97780363609843 21.24322730075893 76.87687456293969 H 0.0 **** 0.06
34029 H 22.802027187894225 22.223389445999175 75.63948110172578 H 0.0 **** 0.06
34030 H 22.56626169805071 20.478854906215673 75.38016958405603 H 0.0 **** 0.06
34031 C 6.259416489382943 71.31098409279039 46.230292295031745 C 0.0 **** -0.24
34032 H 5.711620136930122 71.63499049927927 47.11567946671619 H 0.0 **** 0.06
34033 H 7.3144545189474 71.56063610912341 46.34369876481256 H 0.0 **** 0.06
34034 H 5.858674018056263 71.81433754098984 45.35143447480246 H 0.0 **** 0.06
34035 H 6.151971111383858 70.23175290094972 46.11213969665147 H 0.0 **** 0.06
34036 C 83.7327799344711 73.6477469760905 23.215610716866763 C 0.0 **** -0.24
34037 H 83.34433554879885 74.63176537121416 22.954325221541595 H 0.0 **** 0.06
34038 H 83.94904372961469 73.61346645036798 24.28346708138345 H 0.0 **** 0.06
34039 H 84.64623174537257 73.45733175869015 22.652529726495757 H 0.0 **** 0.06
34040 H 82.99034033209387 72.88750509987665 22.970173981431543 H 0.0 **** 0.06
34041 C 34.162689686481656 21.436429969226396 103.93320409969337 C 0.0 **** -0.24
34042 H 34.965960047912404 22.104758070722653 103.62579627833088 H 0.0 **** 0.06
34043 H 33.5807663670559 21.907608069463294 104.72557261239979 H 0.0 **** 0.06
34044 H 34.58792499313586 20.502244933937305 104.2999392069838 H 0.0 **** 0.06
34045 H 33.51541484220627 21.23001445783177 103.08035807102937 H 0.0 **** 0.06
34046 C 41.4239415022721 51.114185647826076 83.80459930566144 C 0.0 **** -0.24
34047 H 42.02676706804999 52.02345145823355 83.81112098151192 H 0.0 **** 0.06
34048 H 40.36773795322142 51.380801298828175 83.76896874391292 H 0.0 **** 0.06
34049 H 41.62418152885192 50.54019044129666 84.70865945611695 H 0.0 **** 0.06
34050 H 41.67883786239409 50.51664754173859 82.92959449320318 H 0.0 **** 0.06
34051 C 71.10342919703709 8.58946398095975 79.96217119791328 C 0.0 **** -0.24
34052 H 71.48603264248754 8.415439006735312 80.96800583489102 H 0.0 **** 0.06
34053 H 70.0142814620636 8.53403102968511 79.97374122030163 H 0.0 **** 0.06
34054 H 71.4982743809324 7.830408372564506 79.2875481907883 H 0.0 **** 0.06
34055 H 71.41378934127607 9.576691841604458 79.62098784696934 H 0.0 **** 0.06
34056 C 18.24312181166266 79.64599917346627 63.015409057673544 C 0.0 **** -0.24
34057 H 18.60321593598279 79.13937302768755 62.12096483840583 H 0.0 **** 0.06
34058 H 17.478991833886525 80.37351701781955 62.73905668320639 H 0.0 **** 0.06
34059 H 19.074375034890124 80.15894190464007 63.501158307043944 H 0.0 **** 0.06
34060 H 17.81750372224083 78.91382116582662 63.70129240951591 H 0.0 **** 0.06
34061 C 70.83488296583761 106.91694993111336 30.76215633825987 C 0.0 **** -0.24
34062 H 70.69722541741982 107.41763223640089 29.803769662529476 H 0.0 **** 0.06
34063 H 70.97683232123626 105.84913937320019 30.59687669943372 H 0.0 **** 0.06
34064 H 69.95512011603779 107.07549544199048 31.384774972259294 H 0.0 **** 0.06
34065 H 71.71218631450961 107.32663363943948 31.26254765651214 H 0.0 **** 0.06
34066 C 39.40328892849928 58.58743548785478 61.682681950330924 C 0.0 **** -0.24
34067 H 38.68360708832836 57.79259564837064 61.48575533883062 H 0.0 **** 0.06
34068 H 39.4596070421357 58.76746425771608 62.75654010610544 H 0.0 **** 0.06
34069 H 39.0850353468129 59.49914913920596 61.17763320433884 H 0.0 **** 0.06
34070 H 40.383552398334444 58.289360948651385 61.312138525380284 H 0.0 **** 0.06
34071 C 111.8156904313144 74.36805712931158 102.5632495406496 C 0.0 **** -0.24
34072 H 110.99065212217076 74.66262490322407 103.2107608740121 H 0.0 **** 0.06
34073 H 112.69597168883608 74.15457061238538 103.17051543724273 H 0.0 **** 0.06
34074 H 112.04130196338711 75.17850904607582 101.86953449373775 H 0.0 **** 0.06
34075 H 111.53623444738066 73.47632833062443 102.0022651510669 H 0.0 **** 0.06
34076 C 61.532065392478906 21.458980960800858 95.39421700702428 C 0.0 **** -0.24
34077 H 60.800895273885494 22.26379400892094 95.317616676971 H 0.0 **** 0.06
34078 H 61.9790392163707 21.468951198692537 96.38828158329812 H 0.0 **** 0.06
34079 H 62.309698641338706 21.603291204411363 94.64449409395371 H 0.0 **** 0.06
34080 H 61.037636478903075 20.502703105391873 95.22617817471246 H 0.0 **** 0.06
34081 C 37.28818553781366 80.55117590655905 38.819547052951904 C 0.0 **** -0.24
34082 H 37.692237150045685 81.53332520049369 38.57533727558118 H 0.0 **** 0.06
34083 H 37.48671070677648 80.32747571124972 39.868067158586555 H 0.0 **** 0.06
34084 H 37.76220569894984 79.79758106201916 38.190855496867144 H 0.0 **** 0.06
34085 H 36.2130406965898 80.5471070218216 38.6434040980449 H 0.0 **** 0.06
34086 C 48.30022217071121 96.0169896109492 17.26642320218275 C 0.0 **** -0.24
34087 H 49.04263845472917 96.5930486821936 16.71452070161655 H 0.0 **** 0.06
34088 H 47.80237962802107 95.32261195633032 16.588543459132126 H 0.0 **** 0.06
34089 H 47.56276946741872 96.69469583152349 17.69872666829599 H 0.0 **** 0.06
34090 H 48.791665403951924 95.45893013904282 18.06348378490071 H 0.0 **** 0.06
34091 C 106.2114546142839 100.79381626756924 61.724390886685114 C 0.0 **** -0.24
34092 H 107.15547251889421 101.28918261107964 61.94883844166395 H 0.0 **** 0.06
34093 H 106.08674951254955 100.72177045910391 60.64307569880748 H 0.0 **** 0.06
34094 H 105.38863690579237 101.37122431629709 62.147218767172035 H 0.0 **** 0.06
34095 H 106.2131337313962 99.7935069999337 62.15685234550591 H 0.0 **** 0.06
34096 C 59.66986342054969 72.60435201622442 109.91984999500573 C 0.0 **** -0.24
34097 H 59.88674476183391 72.94057131529772 110.93404548346888 H 0.0 **** 0.06
34098 H 60.53077023699262 72.80077478948797 109.28032910183038 H 0.0 **** 0.06
34099 H 58.80183286061333 73.14165875278749 109.53676533795561 H 0.0 **** 0.06
34100 H 59.45998825193581 71.53411557223217 109.92963975115543 H 0.0 **** 0.06
34101 C 24.413203108555223 12.227542905743704 52.17252603574883 C 0.0 **** -0.24
34102 H 25.212030166671894 12.648734414745178 51.56294800341283 H 0.0 **** 0.06
34103 H 24.36710099937568 11.149855556397384 52.01612285058491 H 0.0 **** 0.06
34104 H 23.461921095873294 12.677269167259524 51.887054067216525 H 0.0 **** 0.06
34105 H 24.610886103336526 12.433844003704152 53.2241080078297 H 0.0 **** 0.06
34106 C 47.950826497478616 20.132986194776805 43.28649052629612 C 0.0 **** -0.24
34107 H 49.000690388505674 19.90899547896683 43.09466138195319 H 0.0 **** 0.06
34108 H 47.33061395568175 19.329806662449784 42.88942580497769 H 0.0 **** 0.06
34109 H 47.68653628494232 21.07253957529761 42.80111281356005 H 0.0 **** 0.06
34110 H 47.78862129964183 20.220606505384154 44.36056059709142 H 0.0 **** 0.06
34111 C 26.254673917092077 85.81120070954105 30.264745371324352 C 0.0 **** -0.24
34112 H 26.87380993636458 84.9712216344326 30.57634449327705 H 0.0 **** 0.06
34113 H 25.306518018963857 85.43857537312155 29.875330142934644 H 0.0 **** 0.06
34114 H 26.770962154551228 86.37526257027909 29.487952564856926 H 0.0 **** 0.06
34115 H 26.066097104209177 86.46087203782162 31.1192360516352 H 0.0 **** 0.06
34116 C 67.63627233338477 25.156648076894253 17.635519102028514 C 0.0 **** -0.24
34117 H 66.72277887787072 25.746749464949595 17.558243750497528 H 0.0 **** 0.06
34118 H 67.7897190699592 24.858875292355922 18.672405216649466 H 0.0 **** 0.06
34119 H 68.48385884093005 25.75276552946376 17.298380486563477 H 0.0 **** 0.06
34120 H 67.54714941874246 24.266388054091006 17.01076575720384 H 0.0 **** 0.06
34121 C 80.06350897908493 29.11772407580358 32.74901711133125 C 0.0 **** -0.24
34122 H 80.65050979176556 30.026964349179593 32.61746640349898 H 0.0 **** 0.06
34123 H 80.33539553220612 28.3961307565163 31.977834095552232 H 0.0 **** 0.06
34124 H 79.00274629176738 29.355866341301436 32.66612433801376 H 0.0 **** 0.06
34125 H 80.26572164740395 28.694212744910175 33.732720607805696 H 0.0 **** 0.06
34126 C 87.16824675726932 88.33475329240423 19.359787909260433 C 0.0 **** -0.24
34127 H 87.26835159843381 88.19045687310495 18.283635967540647 H 0.0 **** 0.06
34128 H 86.12738183228572 88.18793938746103 19.650666505723933 H 0.0 **** 0.06
34129 H 87.47981545646215 89.34509747847187 19.621732310492774 H 0.0 **** 0.06
34130 H 87.79733270449734 87.61333553091504 19.88264807953402 H 0.0 **** 0.06
34131 C 107.66816466070635 100.00390003516975 90.91499472164458 C 0.0 **** -0.24
34132 H 108.61717832755104 100.52993689485015 91.02268743065639 H 0.0 **** 0.06
34133 H 106.9834305503654 100.32620242536424 91.69971491451693 H 0.0 **** 0.06
34134 H 107.83664512092267 98.93031913371348 90.99745533592795 H 0.0 **** 0.06
34135 H 107.23672287124583 100.2309232439643 89.93982352375662 H 0.0 **** 0.06
34136 C 56.90165636424899 42.77537907426253 64.99108617255513 C 0.0 **** -0.24
34137 H 57.42803611193534 43.72139867034049 64.86758464143352 H 0.0 **** 0.06
34138 H 57.57922459761221 42.03681220503 65.42220540350692 H 0.0 **** 0.06
34139 H 56.55150918910948 42.42453376326827 64.02030920885588 H 0.0 **** 0.06
34140 H 56.04966487846741 42.918089106342904 65.65536827522203 H 0.0 **** 0.06
34141 C 7.334510162184518 65.33112225730548 7.286372459331744 C 0.0 **** -0.24
34142 H 7.760000819381396 64.42819803520084 6.847398666161553 H 0.0 **** 0.06
34143 H 7.355894342316262 65.25012528505488 8.373196549425927 H 0.0 **** 0.06
34144 H 6.30489209310562 65.44724235761097 6.950320298879149 H 0.0 **** 0.06
34145 H 7.919168103266244 66.19610892419149 6.973931229865457 H 0.0 **** 0.06
34146 C 16.584761274439586 44.73089187769773 29.447096539176933 C 0.0 **** -0.24
34147 H 15.943180130729786 43.86710860432055 29.275383310002717 H 0.0 **** 0.06
34148 H 17.60604232761105 44.49037823697813 29.1508962407663 H 0.0 **** 0.06
34149 H 16.56581332731119 44.991511448315634 30.50533885905609 H 0.0 **** 0.06
34150 H 16.223815586035585 45.573875484661755 28.858884698340667 H 0.0 **** 0.06
34151 C 78.70535061429916 35.46207562320262 51.95038720483759 C 0.0 **** -0.24
34152 H 78.74303639956281 36.24211021804814 51.18987934143428 H 0.0 **** 0.06
34153 H 78.88338478632664 34.49216830267784 51.48360766640263 H 0.0 **** 0.06
34154 H 77.72398869580667 35.46333302309449 52.42362343811196 H 0.0 **** 0.06
34155 H 79.47234501521535 35.6493918551908 52.70120046416105 H 0.0 **** 0.06
34156 C 46.67928994586663 92.11768864019308 63.79937011769391 C 0.0 **** -0.24
34157 H 45.93663559275359 91.96331295003563 64.5819185364922 H 0.0 **** 0.06
34158 H 46.25855614407482 91.82578745543378 62.836624973468645 H 0.0 **** 0.06
34159 H 47.56026445292525 91.51271069554105 64.01071324889284 H 0.0 **** 0.06
34160 H 46.95992974170889 93.17122552088608 63.76950676037427 H 0.0 **** 0.06
34161 C 104.41986668358308 27.306751199263687 22.284131528370498 C 0.0 **** -0.24
34162 H 104.57034896880575 26.948737738062363 21.26569653833326 H 0.0 **** 0.06
34163 H 104.06612239587372 28.337660424795786 22.257381445521318 H 0.0 **** 0.06
34164 H 105.36227005175678 27.259553712499752 22.829227523007837 H 0.0 **** 0.06
34165 H 103.6793923561539 26.68088438027482 22.783127456605737 H 0.0 **** 0.06
34166 C 48.738607992932856 94.08754330511056 85.69688946777723 C 0.0 **** -0.24
34167 H 49.34483772029441 94.24196296586132 86.58979344138348 H 0.0 **** 0.06
34168 H 47.92313402927243 93.40059979855755 85.925798380598 H 0.0 **** 0.06
34169 H 49.35948306700968 93.6652467472181 84.90661029939974 H 0.0 **** 0.06
34170 H 48.328805983271394 95.04160454318742 85.366394662093 H 0.0 **** 0.06
34171 C 34.4072994003411 2.7197558673404103 59.91743016627492 C 0.0 **** -0.24
34172 H 34.47825661785935 2.7792394498976876 58.831183790359965 H 0.0 **** 0.06
34173 H 35.347227223728595 2.347532546759254 60.32307014033234 H 0.0 **** 0.06
34174 H 33.59828886528334 2.0417035815301148 60.191005563475535 H 0.0 **** 0.06
34175 H 34.202137466676106 3.710740190055958 60.32268447916915 H 0.0 **** 0.06
34176 C 2.0850537648467196 35.706354770823054 53.20661564996101 C 0.0 **** -0.24
34177 H 2.9925803044143997 36.13509092407742 53.6324352324329 H 0.0 **** 0.06
34178 H 2.3003891889142007 34.70808601325825 52.82439243811564 H 0.0 **** 0.06
34179 H 1.731808306447972 36.3383280585534 52.392863414397766 H 0.0 **** 0.06
34180 H 1.3174401106216989 35.64312610038286 53.977378101989245 H 0.0 **** 0.06
34181 C 101.32242680869754 62.3275510411957 22.173687068602593 C 0.0 **** -0.24
34182 H 100.38476626401672 62.639589403095904 21.71262935774813 H 0.0 **** 0.06
34183 H 101.27326674674748 61.265307622748175 22.412579478499968 H 0.0 **** 0.06
34184 H 101.48533646752443 62.89945076312761 23.087206385406436 H 0.0 **** 0.06
34185 H 102.14411127892254 62.506882966656 21.48060405901975 H 0.0 **** 0.06
34186 C 93.07606140842239 77.8439074033461 57.09310430030837 C 0.0 **** -0.24
34187 H 92.05667894489818 78.19351110136364 57.260164479451134 H 0.0 **** 0.06
34188 H 93.62765274538381 77.87156054578566 58.03260079628433 H 0.0 **** 0.06
34189 H 93.56530005663839 78.48884369107282 56.36381487482072 H 0.0 **** 0.06
34190 H 93.05130447329503 76.821494724205 56.715851326359086 H 0.0 **** 0.06
34191 C 107.07483680993585 51.573130535286225 43.154837405631056 C 0.0 **** -0.24
34192 H 106.20194138992852 52.07419233083124 43.57512913824785 H 0.0 **** 0.06
34193 H 106.82873407453732 51.18474177075126 42.16631070948867 H 0.0 **** 0.06
34194 H 107.37118968894646 50.751603685995406 43.80588111450882 H 0.0 **** 0.06
34195 H 107.89657815862346 52.28478882807974 43.0714644369915 H 0.0 **** 0.06
34196 C 111.05031522193939 29.28993080312449 16.400992299069465 C 0.0 **** -0.24
34197 H 110.35532381733907 29.747403367772847 17.104800627817603 H 0.0 **** 0.06
34198 H 110.88072451747743 29.698597288496785 15.404787454897729 H 0.0 **** 0.06
34199 H 110.89165712276274 28.211351175271886 16.38304724894581 H 0.0 **** 0.06
34200 H 112.07383619145847 29.500670399788532 16.711166513667617 H 0.0 **** 0.06
34201 C 74.05694160019215 25.472406904126842 21.683701045077324 C 0.0 **** -0.24
34202 H 73.46777266257138 26.271422290387306 22.134254915586105 H 0.0 **** 0.06
34203 H 73.41869093869522 24.871450275472114 21.035975323073142 H 0.0 **** 0.06
34204 H 74.47397528055046 24.841921139026113 22.468789563412106 H 0.0 **** 0.06
34205 H 74.86679747982956 25.905659635107895 21.095977499903753 H 0.0 **** 0.06
34206 C 21.19474013263539 99.69416951750043 95.55154625896563 C 0.0 **** -0.24
34207 H 21.062581848425566 100.63742645709476 95.02084486877388 H 0.0 **** 0.06
34208 H 22.004341642043727 99.79587115126003 96.2746075236252 H 0.0 **** 0.06
34209 H 21.440610070633227 98.90728568328714 94.83854472357825 H 0.0 **** 0.06
34210 H 20.27256268946374 99.43825588318353 96.07238818548223 H 0.0 **** 0.06
34211 C 111.48354477213978 69.59035395299901 7.641625869786878 C 0.0 **** -0.24
34212 H 112.2248713085662 68.82072969760793 7.855323858684926 H 0.0 **** 0.06
34213 H 110.64640686946625 69.48959896327071 8.33420445467982 H 0.0 **** 0.06
34214 H 111.12497933971805 69.47639092424154 6.618676877127996 H 0.0 **** 0.06
34215 H 111.9369502744686 70.57509079533321 7.761109233276443 H 0.0 **** 0.06
34216 C 38.547570937670855 111.43435161574183 50.357542924908785 C 0.0 **** -0.24
34217 H 38.500498179328304 111.99232596089857 49.42193551727928 H 0.0 **** 0.06
34218 H 39.480752109820514 110.87243405579555 50.399135678493565 H 0.0 **** 0.06
34219 H 37.704315224512925 110.7456546718842 50.412093140505476 H 0.0 **** 0.06
34220 H 38.50392120181891 112.12907047305181 51.19721719751249 H 0.0 **** 0.06
34221 C 97.86220689056066 100.24108160501962 57.40805490753439 C 0.0 **** -0.24
34222 H 97.1097312907551 99.74395147569015 58.01960331379045 H 0.0 **** 0.06
34223 H 97.68892856504232 100.00662909151885 56.35763020934384 H 0.0 **** 0.06
34224 H 98.85349861657883 99.8931698422551 57.69953310682869 H 0.0 **** 0.06
34225 H 97.79740964190958 101.31888177153684 57.55671054549689 H 0.0 **** 0.06
34226 C 49.41987681241289 11.284830230151684 87.7781429281786 C 0.0 **** -0.24
34227 H 49.784989542565455 11.340112605733879 86.75230961975183 H 0.0 **** 0.06
34228 H 50.03703619075303 11.917383812172645 88.4174439126854 H 0.0 **** 0.06
34229 H 49.47332671464618 10.253774362223908 88.12703728151212 H 0.0 **** 0.06
34230 H 48.38623719679265 11.628842241584792 87.81558987501029 H 0.0 **** 0.06
34231 C 111.83060052633599 8.440972877511618 41.50476994707702 C 0.0 **** -0.24
34232 H 112.91631119441776 8.352740986229362 41.47935701743464 H 0.0 **** 0.06
34233 H 111.43269713386636 7.801384603137425 42.29313100981679 H 0.0 **** 0.06
34234 H 111.4191596624801 8.133913481784155 40.54392487193006 H 0.0 **** 0.06
34235 H 111.55537691252013 9.47636568013558 41.703863035634456 H 0.0 **** 0.06
34236 C 13.668355651800525 97.64211412590015 35.40022513163672 C 0.0 **** -0.24
34237 H 14.64302440411032 97.6025936216102 34.91513516898979 H 0.0 **** 0.06
34238 H 13.169469333884507 98.57470565813804 35.1374822159587 H 0.0 **** 0.06
34239 H 13.797784213988848 97.59086437511638 36.48102023972007 H 0.0 **** 0.06
34240 H 13.062329844030089 96.79914009061162 35.06717719959303 H 0.0 **** 0.06
34241 C 79.08441359703843 93.22911157164663 86.35010746899923 C 0.0 **** -0.24
34242 H 79.7347872225431 93.36582052025358 87.21411684692092 H 0.0 **** 0.06
34243 H 79.54359418979735 92.52051024261198 85.65995618433018 H 0.0 **** 0.06
34244 H 78.94163477621836 94.18605516198636 85.84768972613827 H 0.0 **** 0.06
34245 H 78.1192508554895 92.84353741252005 86.67902213305237 H 0.0 **** 0.06
34246 C 44.421468833999484 66.94706011737122 0.1386164052662764 C 0.0 **** -0.24
34247 H 43.36925175794593 66.98558369080268 0.41842077022809576 H 0.0 **** 0.06
34248 H 44.76068372982567 67.94570993351576 -0.13817094742100267 H 0.0 **** 0.06
34249 H 44.54868324545032 66.27179875867148 -0.708496382246409 H 0.0 **** 0.06
34250 H 45.00922269120446 66.58371390370525 0.9824329738451922 H 0.0 **** 0.06
34251 C 60.06042402660942 49.67286357081182 93.98139640105072 C 0.0 **** -0.24
34252 H 60.031586033127034 50.41177048174727 93.18123811786589 H 0.0 **** 0.06
34253 H 61.09606482969047 49.47151509869652 94.25346119721507 H 0.0 **** 0.06
34254 H 59.58690634151696 48.75086544398946 93.641377359807 H 0.0 **** 0.06
34255 H 59.52398630513718 50.05712285095408 94.84967967067024 H 0.0 **** 0.06
34256 C 6.96871743500742 110.63183361790658 24.120630892431734 C 0.0 **** -0.24
34257 H 6.799139513222713 111.60629517492751 24.579390558452417 H 0.0 **** 0.06
34258 H 6.8108318694057175 109.84846358663663 24.86297516632277 H 0.0 **** 0.06
34259 H 7.9917684782361675 110.57874371363064 23.748177648740153 H 0.0 **** 0.06
34260 H 6.273246014477763 110.4945938219079 23.292617527566676 H 0.0 **** 0.06
34261 C 11.165488162961339 64.0146405649225 32.14872861085938 C 0.0 **** -0.24
34262 H 10.396039889927891 63.24614271902946 32.220218370366126 H 0.0 **** 0.06
34263 H 11.361687936453166 64.42485072180986 33.13938479208281 H 0.0 **** 0.06
34264 H 10.823515620653751 64.80969098652929 31.48625522509885 H 0.0 **** 0.06
34265 H 12.080188280969281 63.576852365205546 31.748233153105375 H 0.0 **** 0.06
34266 C 0.5487948663543989 109.56656873276907 57.27317449389828 C 0.0 **** -0.24
34267 H -0.06270732371609711 110.40189751563322 57.61519688935699 H 0.0 **** 0.06
34268 H 1.47976980848847 109.54216345265468 57.84129291521288 H 0.0 **** 0.06
34269 H 0.7724059985438174 109.69067834163877 56.21362966109143 H 0.0 **** 0.06
34270 H 0.0060463528540850575 108.63351445243366 57.423564429211496 H 0.0 **** 0.06
34271 C 51.41326147950639 83.0546527606341 70.27809388547132 C 0.0 **** -0.24
34272 H 52.02239565592936 82.39463569031116 69.66033145317749 H 0.0 **** 0.06
34273 H 51.038563681083815 83.87773277221044 69.66871936503819 H 0.0 **** 0.06
34274 H 52.019588271169425 83.45249653459447 71.09269048565912 H 0.0 **** 0.06
34275 H 50.57383113866996 82.4949760926032 70.68932624914811 H 0.0 **** 0.06
34276 C 71.05554708190644 11.95460063197736 17.178762708955333 C 0.0 **** -0.24
34277 H 71.98980970150299 11.413908181549964 17.02821235975091 H 0.0 **** 0.06
34278 H 71.17431869561602 12.663385090372397 17.99843477675978 H 0.0 **** 0.06
34279 H 70.26118054228928 11.247882028761765 17.420694635828454 H 0.0 **** 0.06
34280 H 70.79652277134997 12.49297248171095 16.266364428743486 H 0.0 **** 0.06
34281 C 54.84716679763756 47.78702614688652 14.353243327556356 C 0.0 **** -0.24
34282 H 54.256956980010116 48.664014000305 14.087286431220605 H 0.0 **** 0.06
34283 H 55.897839244413376 47.9752239389945 14.131472243681884 H 0.0 **** 0.06
34284 H 54.50215523466668 46.92903789117625 13.776237638897669 H 0.0 **** 0.06
34285 H 54.731459553048836 47.57935242913115 15.416670245583134 H 0.0 **** 0.06
34286 C 27.478188782222446 23.15761669906658 0.9326072940279708 C 0.0 **** -0.24
34287 H 27.130439196086144 24.036933819226817 1.4749697444359038 H 0.0 **** 0.06
34288 H 26.68583347369099 22.409898292724847 0.9079576211462257 H 0.0 **** 0.06
34289 H 28.35283471502757 22.744598930341567 1.4350535112305334 H 0.0 **** 0.06
34290 H 27.74389048493768 23.441461991425683 -0.08553799368651038 H 0.0 **** 0.06
34291 C 22.21051892413816 96.0805318359192 47.71161122798429 C 0.0 **** -0.24
34292 H 22.3854135909377 95.85577247386374 46.658908258640906 H 0.0 **** 0.06
34293 H 21.514814742448134 95.35112045938376 48.127221818976466 H 0.0 **** 0.06
34294 H 21.786533646159537 97.07994422796975 47.80296591104195 H 0.0 **** 0.06
34295 H 23.154367589555967 96.03441427704337 48.25446132916085 H 0.0 **** 0.06
34296 C 77.88367800386828 48.05166813554513 33.412573131996936 C 0.0 **** -0.24
34297 H 77.82126588299391 47.59634905271159 34.401310554140366 H 0.0 **** 0.06
34298 H 77.518379367536 47.34594397840317 32.66549094362625 H 0.0 **** 0.06
34299 H 78.92138413316445 48.30636714626438 33.19578792301189 H 0.0 **** 0.06
34300 H 77.27406052924167 48.95455998411074 33.389095606833706 H 0.0 **** 0.06
34301 C 74.59674804423898 91.54179993487708 1.4484386234757949 C 0.0 **** -0.24
34302 H 74.81455421590107 92.45978238646984 1.994857980797235 H 0.0 **** 0.06
34303 H 74.4234187402528 91.77779618608793 0.39775541691554395 H 0.0 **** 0.06
34304 H 73.70748990674537 91.07280562878901 1.86755268725625 H 0.0 **** 0.06
34305 H 75.442471342651 90.86025215754523 1.5330379847828226 H 0.0 **** 0.06
34306 C 82.28326879780613 2.0370026071665848 4.272929367725478 C 0.0 **** -0.24
34307 H 83.31316838789027 2.1669294023027135 4.607614796507148 H 0.0 **** 0.06
34308 H 82.23689241400808 1.223908479571321 3.548494719857377 H 0.0 **** 0.06
34309 H 81.93482666298962 2.9591289988666745 3.8073282407666316 H 0.0 **** 0.06
34310 H 81.65120148430776 1.7996844535146295 5.127804979717331 H 0.0 **** 0.06
34311 C 34.16651595143327 31.544383449447437 8.486827218266683 C 0.0 **** -0.24
34312 H 33.14480141331944 31.302676079516345 8.191370917671605 H 0.0 **** 0.06
34313 H 34.31643361433288 31.27094972684246 9.531669852711815 H 0.0 **** 0.06
34314 H 34.33780632665082 32.61282152661826 8.36181128696316 H 0.0 **** 0.06
34315 H 34.86561228329299 30.98859870126934 7.861549639390773 H 0.0 **** 0.06
34316 C 42.50375970041567 8.506778094243202 23.9213160911398 C 0.0 **** -0.24
34317 H 43.02420459760369 9.032760758593696 23.120203237942206 H 0.0 **** 0.06
34318 H 41.44189974440843 8.751604456617144 23.88653233767647 H 0.0 **** 0.06
34319 H 42.9166723140278 8.81125859472931 24.882771321309832 H 0.0 **** 0.06
34320 H 42.633466726811314 7.43283348660745 23.792975238406 H 0.0 **** 0.06
34321 C 43.284132708753674 2.677313452281922 111.39786686728198 C 0.0 **** -0.24
34322 H 43.90018117253706 2.5408940587024773 112.28582651935545 H 0.0 **** 0.06
34323 H 43.54009631843613 3.6227855999883474 110.91975763954639 H 0.0 **** 0.06
34324 H 42.23227368528569 2.687042069614691 111.6836488514567 H 0.0 **** 0.06
34325 H 43.46325413311402 1.8571260464490535 110.70152958285311 H 0.0 **** 0.06
34326 C 70.11464893943307 96.54115723795871 84.14691577371184 C 0.0 **** -0.24
34327 H 70.0431831372448 96.4255056372736 85.2289813016493 H 0.0 **** 0.06
34328 H 71.00247945588532 97.12414784959884 83.90213565429536 H 0.0 **** 0.06
34329 H 69.22848300518865 97.0562234211994 83.77826273627574 H 0.0 **** 0.06
34330 H 70.18594719344566 95.55865337203142 83.68156210517583 H 0.0 **** 0.06
34331 C 91.3631356127375 91.57138868305387 104.94419095067644 C 0.0 **** -0.24
34332 H 90.78803040724202 92.36218795724977 104.46235704782157 H 0.0 **** 0.06
34333 H 92.41466860589225 91.67193260189833 104.67594170729149 H 0.0 **** 0.06
34334 H 90.99322104225942 90.60096919660157 104.61479368132484 H 0.0 **** 0.06
34335 H 91.25513088908303 91.6530197233833 106.02596253862222 H 0.0 **** 0.06
34336 C 0.22763999216630726 32.390510048115225 37.436691985247485 C 0.0 **** -0.24
34337 H 0.29963471294211974 31.397620914796583 37.87949133146772 H 0.0 **** 0.06
34338 H 1.0655212449458675 33.000502620146904 37.77464534291253 H 0.0 **** 0.06
34339 H -0.7091421951619443 32.85740129862474 37.74339570094282 H 0.0 **** 0.06
34340 H 0.2521964516771087 32.30626145368456 36.34987940368659 H 0.0 **** 0.06
34341 C 47.21746666847892 1.4638936718909008 111.44598661368235 C 0.0 **** -0.24
34342 H 46.55676114609241 1.751474905234545 110.62896546317447 H 0.0 **** 0.06
34343 H 48.19912707147705 1.2084413081033745 111.04716795166394 H 0.0 **** 0.06
34344 H 46.800096660909475 0.6004893130513551 111.9643663928964 H 0.0 **** 0.06
34345 H 47.313520428230106 2.294651079744881 112.14471200023426 H 0.0 **** 0.06
34346 C 45.436181198045546 5.4432571622248815 77.56406807839 C 0.0 **** -0.24
34347 H 45.33787426251453 6.513595787724796 77.74302985727437 H 0.0 **** 0.06
34348 H 44.818458691787214 5.158693741831257 76.71154709596959 H 0.0 **** 0.06
34349 H 45.11033831985469 4.895548772638676 78.4475380821674 H 0.0 **** 0.06
34350 H 46.479183800283636 5.205192574913667 77.35222783764135 H 0.0 **** 0.06
34351 C 69.61670466575589 38.03526478232874 84.6362645279645 C 0.0 **** -0.24
34352 H 70.02991166819206 38.98697563920115 84.30265429132578 H 0.0 **** 0.06
34353 H 70.22288420693434 37.21890586774609 84.24352303748245 H 0.0 **** 0.06
34354 H 68.59373172021549 37.93625802546313 84.2709790291583 H 0.0 **** 0.06
34355 H 69.61856031738998 37.999806547445075 85.72561738687182 H 0.0 **** 0.06
34356 C 107.35520103629094 0.2217509009915375 112.28052903632458 C 0.0 **** -0.24
34357 H 107.77699480291005 -0.3954260278269146 111.48687729872654 H 0.0 **** 0.06
34358 H 107.04641526340637 1.1827134642331032 111.86804662980758 H 0.0 **** 0.06
34359 H 108.10614550091023 0.382338789919487 113.05419714352547 H 0.0 **** 0.06
34360 H 106.49051842656854 -0.28327947205698933 112.71197745793769 H 0.0 **** 0.06
34361 C 61.44819152774945 96.74529084784658 8.889732852144874 C 0.0 **** -0.24
34362 H 60.46924693435984 96.37163554733615 9.190423064969465 H 0.0 **** 0.06
34363 H 62.182784891096 96.4951036700254 9.65565739107197 H 0.0 **** 0.06
34364 H 61.40261652399122 97.82735386743877 8.76835778963924 H 0.0 **** 0.06
34365 H 61.73699088782913 96.28513931464767 7.944534507414829 H 0.0 **** 0.06
34366 C 57.74624968871075 86.58398564666692 102.57546001591479 C 0.0 **** -0.24
34367 H 57.197807285684576 87.52497881937768 102.63184480855958 H 0.0 **** 0.06
34368 H 57.10135459286818 85.81289958367483 102.15324440265428 H 0.0 **** 0.06
34369 H 58.061303758426334 86.28747140318956 103.57612811761092 H 0.0 **** 0.06
34370 H 58.62326505067102 86.71186094860303 101.94195841394435 H 0.0 **** 0.06
34371 C 47.88592871884612 70.35026261662347 82.58372746727227 C 0.0 **** -0.24
34372 H 47.42366146693814 71.32099890658367 82.76309423668533 H 0.0 **** 0.06
34373 H 47.967991147583035 70.17943748397852 81.50978520270374 H 0.0 **** 0.06
34374 H 47.272057346177206 69.5679107866655 83.02980361546963 H 0.0 **** 0.06
34375 H 48.87913970727496 70.33276595514258 83.03272435402474 H 0.0 **** 0.06
34376 C 48.68854001407898 12.722205404521048 38.89515414647232 C 0.0 **** -0.24
34377 H 48.57973160184642 11.65730310144582 39.10246127475811 H 0.0 **** 0.06
34378 H 48.77155544543873 12.874971461522591 37.818448782741925 H 0.0 **** 0.06
34379 H 49.58534061035898 13.099183424928356 39.38698812407881 H 0.0 **** 0.06
34380 H 47.81593230150324 13.25656687388053 39.27137484483791 H 0.0 **** 0.06
34381 C 81.85316417114507 15.832635191317479 83.36779364721846 C 0.0 **** -0.24
34382 H 81.75326345757955 16.84049782605649 83.77151283640822 H 0.0 **** 0.06
34383 H 80.99520657148534 15.232971744412339 83.67192174820539 H 0.0 **** 0.06
34384 H 82.76822976467645 15.378751140802365 83.74986391267595 H 0.0 **** 0.06
34385 H 81.89746133576912 15.879567856098276 82.28055569217636 H 0.0 **** 0.06
34386 C 6.911111523304868 67.4847712599634 72.12669211537744 C 0.0 **** -0.24
34387 H 6.866350456916521 66.66953509775288 71.40346398711259 H 0.0 **** 0.06
34388 H 7.951115195927869 67.76954462006725 72.28799282558987 H 0.0 **** 0.06
34389 H 6.47271627506484 67.1581918613092 73.06890907985968 H 0.0 **** 0.06
34390 H 6.355583512517029 68.34019748503957 71.74382408693427 H 0.0 **** 0.06
34391 C 2.0377451344750934 97.20929383191162 78.62017225662845 C 0.0 **** -0.24
34392 H 2.627571849358544 97.34967293390534 79.52569559364457 H 0.0 **** 0.06
34393 H 2.6806370216841557 96.83891622784009 77.82166938179316 H 0.0 **** 0.06
34394 H 1.5985707751845686 98.16121458345108 78.32114353880303 H 0.0 **** 0.06
34395 H 1.2434639228634685 96.4873135241597 78.81285398308341 H 0.0 **** 0.06
34396 C 36.242563274158826 101.69135407348531 51.782040685687974 C 0.0 **** -0.24
34397 H 36.188118852370074 101.75731751271684 50.69586898582962 H 0.0 **** 0.06
34398 H 36.373490556727766 100.64963235634792 52.076574818971736 H 0.0 **** 0.06
34399 H 35.3224145233382 102.07954761676885 52.21709626390781 H 0.0 **** 0.06
34400 H 37.089206032858556 102.27860453196709 52.13882265905587 H 0.0 **** 0.06
34401 C 93.67529221371356 84.71236677235535 33.40614465243766 C 0.0 **** -0.24
34402 H 94.73767675021844 84.87371188395821 33.59005839524764 H 0.0 **** 0.06
34403 H 93.20417477078908 85.66107158210752 33.14858700560569 H 0.0 **** 0.06
34404 H 93.2096430648127 84.30514003737554 34.303408061830396 H 0.0 **** 0.06
34405 H 93.55164494300905 84.0098594545951 32.58151670533789 H 0.0 **** 0.06
34406 C 56.91484882224731 64.82975292853754 2.2915223154847837 C 0.0 **** -0.24
34407 H 57.949630120622714 64.89041345885875 2.629140995877549 H 0.0 **** 0.06
34408 H 56.52737808021516 65.83581478106757 2.1270521567900573 H 0.0 **** 0.06
34409 H 56.31482550448831 64.32785537284951 3.0494775623903934 H 0.0 **** 0.06
34410 H 56.870225185726355 64.26569469459358 1.3592704748468805 H 0.0 **** 0.06
34411 C 7.54281299194912 23.30036805275904 108.67937365044195 C 0.0 **** -0.24
34412 H 8.437768068958576 23.689817105457962 109.16621481735415 H 0.0 **** 0.06
34413 H 7.8321607462928 22.66467853156712 107.84346036981661 H 0.0 **** 0.06
34414 H 6.938753148523176 24.130545572362962 108.31343735139339 H 0.0 **** 0.06
34415 H 6.963490086089337 22.718657348485976 109.39586438656109 H 0.0 **** 0.06
34416 C 19.400694473405593 63.09038102714165 94.53618659060808 C 0.0 **** -0.24
34417 H 18.851963337245678 64.0301593972853 94.47309812581958 H 0.0 **** 0.06
34418 H 19.954246638396796 62.9310621434848 93.60972018573534 H 0.0 **** 0.06
34419 H 18.699359473686712 62.27011643650342 94.68614844459213 H 0.0 **** 0.06
34420 H 20.097258871654333 63.13196199345776 95.37357864639418 H 0.0 **** 0.06
34421 C 11.83396333040173 2.325667883499797 38.277676600293404 C 0.0 **** -0.24
34422 H 11.746225792969767 1.7881178718058095 39.222254571434064 H 0.0 **** 0.06
34423 H 12.14427095676075 1.6344907296106381 37.494566989916734 H 0.0 **** 0.06
34424 H 12.574011360646239 3.1185502093649795 38.37888842497125 H 0.0 **** 0.06
34425 H 10.868493426486083 2.7609715872992666 38.01792480348632 H 0.0 **** 0.06
34426 C 67.30573124398654 12.443136355514454 77.49189089288006 C 0.0 **** -0.24
34427 H 68.0643592344739 12.938015905155055 78.09871065548816 H 0.0 **** 0.06
34428 H 66.5668882012219 11.976892173045293 78.14434377181843 H 0.0 **** 0.06
34429 H 67.77642037285352 11.679397382424767 76.87270762269401 H 0.0 **** 0.06
34430 H 66.81516762109197 13.177752571122653 76.85398205259315 H 0.0 **** 0.06
34431 C 16.137111318661255 11.42674649011455 43.859445431172404 C 0.0 **** -0.24
34432 H 16.3765471490363 10.466876863627718 44.318381419070036 H 0.0 **** 0.06
34433 H 16.244686452579884 11.349310442722388 42.777755729114574 H 0.0 **** 0.06
34434 H 16.816072027969682 12.189819761828172 44.239151751424885 H 0.0 **** 0.06
34435 H 15.110111954998828 11.698752707124726 44.10422154232336 H 0.0 **** 0.06
34436 C 102.96998066478466 15.822590330422628 67.44345195276355 C 0.0 **** -0.24
34437 H 102.57131107235975 15.859181321939559 68.4568595696557 H 0.0 **** 0.06
34438 H 103.48504499222517 14.874344009392473 67.28879084313849 H 0.0 **** 0.06
34439 H 103.67019197188213 16.644586761097628 67.29927391351848 H 0.0 **** 0.06
34440 H 102.15212428964651 15.912272620439666 66.72822300489551 H 0.0 **** 0.06
34441 C 79.72277805383419 109.78608352032711 69.13374855643048 C 0.0 **** -0.24
34442 H 78.63373120714186 109.82726369497888 69.11696931818642 H 0.0 **** 0.06
34443 H 80.10418672998682 109.8494963403983 68.11474383995326 H 0.0 **** 0.06
34444 H 80.04326771027362 108.84644017882496 69.58409640050547 H 0.0 **** 0.06
34445 H 80.1088846074336 110.61976403412206 69.71937972112406 H 0.0 **** 0.06
34446 C 38.665422333278684 57.26407363581447 8.20349350733997 C 0.0 **** -0.24
34447 H 38.14594007200583 56.31532391595792 8.336186801192852 H 0.0 **** 0.06
34448 H 38.019677090005985 57.958014083873415 7.6645833349255525 H 0.0 **** 0.06
34449 H 39.57993096013524 57.10042160730456 7.634254260488973 H 0.0 **** 0.06
34450 H 38.91375542804042 57.68209295309632 9.178613431664743 H 0.0 **** 0.06
34451 C 49.1395320131401 93.06049051122721 49.86481728684163 C 0.0 **** -0.24
34452 H 48.7045896251459 92.31634101650391 50.532790412144436 H 0.0 **** 0.06
34453 H 49.0438422723829 94.05038858228929 50.31251668464478 H 0.0 **** 0.06
34454 H 48.61551627171073 93.04162646072655 48.90995134783918 H 0.0 **** 0.06
34455 H 50.19410442156638 92.8332380602649 49.70570159208927 H 0.0 **** 0.06
34456 C 39.13394050595048 84.72217017946082 56.076763115066996 C 0.0 **** -0.24
34457 H 38.264141019259796 85.36918210773734 56.1835606854556 H 0.0 **** 0.06
34458 H 38.99130702110034 84.05892184333362 55.22279777469063 H 0.0 **** 0.06
34459 H 39.25784927919307 84.12783360121466 56.98210395954865 H 0.0 **** 0.06
34460 H 40.02375087163506 85.33215960386994 55.918516947083816 H 0.0 **** 0.06
34461 C 15.986251304304119 93.23851170559365 17.96316609072531 C 0.0 **** -0.24
34462 H 16.16631975796939 93.85218998747283 17.0808148693813 H 0.0 **** 0.06
34463 H 15.454294165955332 93.82578713788203 18.71239944740458 H 0.0 **** 0.06
34464 H 16.939142345557087 92.90333309020488 18.3741580792952 H 0.0 **** 0.06
34465 H 15.384773930632605 92.37242111194689 17.686586159691956 H 0.0 **** 0.06
34466 C 100.13667643098785 15.91079250195861 38.55639645195134 C 0.0 **** -0.24
34467 H 99.28272136849614 15.695106959303246 37.91359171011247 H 0.0 **** 0.06
34468 H 100.3906636419747 15.021019104979274 39.133977861830104 H 0.0 **** 0.06
34469 H 99.88396419933991 16.725377696810682 39.23571958773617 H 0.0 **** 0.06
34470 H 100.9893565141405 16.201666246741354 37.94229664812675 H 0.0 **** 0.06
34471 C 81.20299752851054 71.53191572996636 63.53507274782737 C 0.0 **** -0.24
34472 H 80.78332222190846 71.92729575283323 64.46097973995097 H 0.0 **** 0.06
34473 H 81.95511321487487 72.2238961340698 63.15402341278087 H 0.0 **** 0.06
34474 H 80.4101786903932 71.41492500275655 62.79748767068787 H 0.0 **** 0.06
34475 H 81.66452515650761 70.56386383404663 63.73050349706347 H 0.0 **** 0.06
34476 C 55.9294522938693 72.64867916462293 1.2032429878273518 C 0.0 **** -0.24
34477 H 56.567295768170254 73.47503589552605 1.5185471320518786 H 0.0 **** 0.06
34478 H 55.64873338856347 72.05531032340986 2.074321510666323 H 0.0 **** 0.06
34479 H 56.47190584137127 72.02186662468796 0.4952785868259042 H 0.0 **** 0.06
34480 H 55.032793356146954 73.04346560901547 0.7267099497901199 H 0.0 **** 0.06
34481 C 39.25594615914836 61.675946358506394 5.564417562270421 C 0.0 **** -0.24
34482 H 39.72079311566868 61.346356039583156 4.634558976722872 H 0.0 **** 0.06
34483 H 38.5442710987168 60.92223359434814 5.900857820822296 H 0.0 **** 0.06
34484 H 38.735412232635746 62.619450684951744 5.395747789400332 H 0.0 **** 0.06
34485 H 40.02418630600218 61.81663295662548 6.324398296629397 H 0.0 **** 0.06
34486 C 4.607176736624567 64.098024372336 54.98077316342835 C 0.0 **** -0.24
34487 H 5.114025723942689 64.80094183592615 54.32044940077188 H 0.0 **** 0.06
34488 H 4.107148956434472 63.33490265865174 54.38389973517488 H 0.0 **** 0.06
34489 H 3.8704027331710193 64.63038823579632 55.58188309081517 H 0.0 **** 0.06
34490 H 5.3376845320917425 63.62466143901648 55.63797584938917 H 0.0 **** 0.06
34491 C 105.4085932061316 49.89944930911561 73.51178597432238 C 0.0 **** -0.24
34492 H 105.19801025166839 49.02033621384156 72.90207258103388 H 0.0 **** 0.06
34493 H 104.65080331937449 50.66033982220086 73.32543819654393 H 0.0 **** 0.06
34494 H 106.39081445614366 50.293985258929425 73.25221098964744 H 0.0 **** 0.06
34495 H 105.39510359073634 49.62252106016303 74.56620012282278 H 0.0 **** 0.06
34496 C 90.51954625263366 19.12969954662495 24.219612924812296 C 0.0 **** -0.24
34497 H 90.91970337145511 18.16655683235217 24.536317487676758 H 0.0 **** 0.06
34498 H 90.38756925334673 19.129802075632995 23.137777709604695 H 0.0 **** 0.06
34499 H 91.21275213799476 19.92149504274883 24.502584391633253 H 0.0 **** 0.06
34500 H 89.55670527604968 19.299284188675955 24.703803811975735 H 0.0 **** 0.06
34501 C 83.25530800542106 65.01113835158986 30.29302996099446 C 0.0 **** -0.24
34502 H 82.19928073180742 64.77750555568423 30.43088692429282 H 0.0 **** 0.06
34503 H 83.80823393158948 64.73764023624449 31.193051755504797 H 0.0 **** 0.06
34504 H 83.3691381691419 66.0792779390355 30.107538948564468 H 0.0 **** 0.06
34505 H 83.64350911182362 64.4500154054825 29.44284271947933 H 0.0 **** 0.06
34506 C 2.5978407888270283 73.72243112441271 84.77286610109334 C 0.0 **** -0.24
34507 H 3.296772698684549 74.2783241767722 85.3981512458252 H 0.0 **** 0.06
34508 H 2.7607926757223424 72.6531206713016 84.90849147644042 H 0.0 **** 0.06
34509 H 2.757620275308767 73.98580910417428 83.7278398423991 H 0.0 **** 0.06
34510 H 1.5768090827755543 73.97432769303293 85.05925177879442 H 0.0 **** 0.06
34511 C 56.867724180840725 108.72961669670622 48.052349073247 C 0.0 **** -0.24
34512 H 56.06245545360454 109.06584154975587 48.70469135719995 H 0.0 **** 0.06
34513 H 57.68987901348149 109.44450088357314 48.090275833906816 H 0.0 **** 0.06
34514 H 56.49863040529917 108.6544448077882 47.02961384436563 H 0.0 **** 0.06
34515 H 57.2200067608523 107.75239962001149 48.38421835537105 H 0.0 **** 0.06
34516 C 50.777195827516266 102.30677117468352 67.30948330727406 C 0.0 **** -0.24
34517 H 51.68134879557209 102.24576091479767 67.91434898666162 H 0.0 **** 0.06
34518 H 50.75966289983853 101.47925227412304 66.59885923815128 H 0.0 **** 0.06
34519 H 50.76625776758499 103.25200444511879 66.76732025031362 H 0.0 **** 0.06
34520 H 49.901531510068935 102.24867042936816 67.95718291792556 H 0.0 **** 0.06
34521 C 15.70279703786727 24.788864556954763 47.872261478173186 C 0.0 **** -0.24
34522 H 15.955367385793437 24.516762678117175 46.847442384081916 H 0.0 **** 0.06
34523 H 16.476437709209165 25.442936840945833 48.27637660513807 H 0.0 **** 0.06
34524 H 15.63550099227416 23.88726616683863 48.48112022676375 H 0.0 **** 0.06
34525 H 14.744929463728724 25.308850284087697 47.88498708764425 H 0.0 **** 0.06
34526 C 28.99881997619748 48.17301756298053 30.20472896910229 C 0.0 **** -0.24
34527 H 28.0377688190906 48.645016023238156 29.997771048769074 H 0.0 **** 0.06
34528 H 29.48265065273275 48.68668476768397 31.03653325363357 H 0.0 **** 0.06
34529 H 29.632335375969042 48.236555579364165 29.320315311350022 H 0.0 **** 0.06
34530 H 28.840881629161117 47.12649241626076 30.465357027083776 H 0.0 **** 0.06
34531 C 63.10710098144153 8.171473215786865 27.984923819581496 C 0.0 **** -0.24
34532 H 62.674712053703274 8.004403665118849 28.971244734577624 H 0.0 **** 0.06
34533 H 62.30855761021331 8.25139392489717 27.246968817898306 H 0.0 **** 0.06
34534 H 63.75818408827075 7.335596113549263 27.727479278732005 H 0.0 **** 0.06
34535 H 63.68808262699412 9.094239201508529 27.994808725301695 H 0.0 **** 0.06
34536 C 74.78390772282705 76.2497603691437 59.01339286950713 C 0.0 **** -0.24
34537 H 75.5921347985923 76.87525910588397 59.393087147770814 H 0.0 **** 0.06
34538 H 74.10052628080106 76.0063545126942 59.826286296640205 H 0.0 **** 0.06
34539 H 75.2006573621405 75.33022622222336 58.601600300558204 H 0.0 **** 0.06
34540 H 74.24554424125424 76.78649018797557 58.232374149020984 H 0.0 **** 0.06
34541 C 78.78959975509866 44.482165923367404 103.16385645852017 C 0.0 **** -0.24
34542 H 78.8904994887979 43.54417277509023 102.61811890949497 H 0.0 **** 0.06
34543 H 78.00503233039456 45.08590391132449 102.70565028741876 H 0.0 **** 0.06
34544 H 79.73354792420344 45.0260588583092 103.1284909470578 H 0.0 **** 0.06
34545 H 78.5293118602105 44.27357085908719 104.20178262456221 H 0.0 **** 0.06
34546 C 25.824471547472854 26.939744530586957 8.291748372263115 C 0.0 **** -0.24
34547 H 25.885497967517466 27.871406244595114 8.853865435876017 H 0.0 **** 0.06
34548 H 26.104430136917017 26.107068127673394 8.938176767887242 H 0.0 **** 0.06
34549 H 26.50398086672527 26.983947772938578 7.440521870201934 H 0.0 **** 0.06
34550 H 24.804442148291344 26.79597824861841 7.935994739472022 H 0.0 **** 0.06
34551 C 9.964211769588985 17.556151761325623 100.80254146022082 C 0.0 **** -0.24
34552 H 8.8840332332598 17.69536864706413 100.85010611752705 H 0.0 **** 0.06
34553 H 10.436301054374013 18.485754971430566 100.48427587743356 H 0.0 **** 0.06
34554 H 10.196933948579073 16.766337623082933 100.08908204227305 H 0.0 **** 0.06
34555 H 10.337317608483119 17.27826122888837 101.78832758332476 H 0.0 **** 0.06
34556 C 0.3158315456362848 0.04173884200625366 45.735848573254344 C 0.0 **** -0.24
34557 H 1.1035404658750956 -0.7100383453011716 45.690032773345024 H 0.0 **** 0.06
34558 H -0.31187792832811745 -0.1434607726735635 46.60700886832416 H 0.0 **** 0.06
34559 H -0.29188446981472094 -0.013592326040281932 44.83207362462883 H 0.0 **** 0.06
34560 H 0.7627637318078229 1.032465471676744 45.813338636985605 H 0.0 **** 0.06
34561 C 87.25234610352305 3.4261091196279114 14.244590434492963 C 0.0 **** -0.24
34562 H 87.87162364477282 3.9341339149425902 13.504818465089713 H 0.0 **** 0.06
34563 H 86.20647839534473 3.688168744472973 14.083432432850302 H 0.0 **** 0.06
34564 H 87.55587701240745 3.7340223808472146 15.244987745491045 H 0.0 **** 0.06
34565 H 87.37722283151447 2.3481138434065993 14.142348671867808 H 0.0 **** 0.06
34566 C 46.485792505231174 28.755247023937557 76.10874894482407 C 0.0 **** -0.24
34567 H 45.65585275740405 28.657560266172368 75.40911283456947 H 0.0 **** 0.06
34568 H 46.94672628808988 27.779526239287577 76.2626105431371 H 0.0 **** 0.06
34569 H 46.116051908009126 29.136530925206415 77.06089751486377 H 0.0 **** 0.06
34570 H 47.22486493969316 29.446210522083703 75.70311514946889 H 0.0 **** 0.06
34571 C 17.608953568269207 77.61489833396678 51.47480602806081 C 0.0 **** -0.24
34572 H 17.78740253728522 78.68296492862112 51.35055184691501 H 0.0 **** 0.06
34573 H 17.02637014592505 77.24347556084157 50.63116266415155 H 0.0 **** 0.06
34574 H 17.05799487918817 77.44381230644808 52.39921093996667 H 0.0 **** 0.06
34575 H 18.56322375769089 77.08939588475224 51.51714983625306 H 0.0 **** 0.06
34576 C 26.193221647640506 24.968369185708134 100.72193121523182 C 0.0 **** -0.24
34577 H 25.292244196089815 24.643127983875505 101.24296406834901 H 0.0 **** 0.06
34578 H 26.502550962219864 24.197648813168215 100.01578046230316 H 0.0 **** 0.06
34579 H 26.98956913198944 25.139146265949144 101.44576352686829 H 0.0 **** 0.06
34580 H 25.987280486357413 25.89408130372506 100.18364062495755 H 0.0 **** 0.06
34581 C 9.438234301627006 55.27009654631047 32.10815796583336 C 0.0 **** -0.24
34582 H 9.728140463090227 54.22951194434421 32.2518919577671 H 0.0 **** 0.06
34583 H 9.53048561256847 55.53034727542894 31.05406660328117 H 0.0 **** 0.06
34584 H 10.089510847954728 55.91319418816235 32.70015431567043 H 0.0 **** 0.06
34585 H 8.405413481372122 55.40622174920051 32.42806489446133 H 0.0 **** 0.06
34586 C 19.211444293793125 84.86407294363428 44.6216052524091 C 0.0 **** -0.24
34587 H 19.32391456485261 83.81203720911108 44.88513264179855 H 0.0 **** 0.06
34588 H 19.927940080466445 85.45838088707416 45.19029880105157 H 0.0 **** 0.06
34589 H 18.199513090923016 85.19074667992172 44.85714886311237 H 0.0 **** 0.06
34590 H 19.39670091616045 84.99245697306313 43.55511384576164 H 0.0 **** 0.06
34591 C 0.8335067404360927 26.22300230591359 66.69278557106273 C 0.0 **** -0.24
34592 H 1.56921284175624 25.526026127783773 66.29178792228939 H 0.0 **** 0.06
34593 H 0.15968081997974082 25.692849591077838 67.36632930024541 H 0.0 **** 0.06
34594 H 0.26142872570935083 26.658829019574533 65.87355469707958 H 0.0 **** 0.06
34595 H 1.3456373403668636 27.01541989400478 67.23961375983788 H 0.0 **** 0.06
34596 C 86.63278323945462 47.34882747471099 9.492305761331977 C 0.0 **** -0.24
34597 H 87.02255109731348 46.360880283749765 9.245855384495712 H 0.0 **** 0.06
34598 H 86.86316967922448 48.042513865982386 8.682812863793629 H 0.0 **** 0.06
34599 H 87.09503354601193 47.70042921682111 10.414948858753746 H 0.0 **** 0.06
34600 H 85.55236409063878 47.29061581136514 9.626153748161641 H 0.0 **** 0.06
34601 C 1.9527220755330177 12.499889396415071 3.056565602920548 C 0.0 **** -0.24
34602 H 2.828907617607996 13.147055365853731 3.012787608621963 H 0.0 **** 0.06
34603 H 2.2539640436788773 11.502862802601214 3.3770599161648907 H 0.0 **** 0.06
34604 H 1.494934422481407 12.442942347017677 2.068952372410058 H 0.0 **** 0.06
34605 H 1.2342312877956374 12.909287135742389 3.7664767607750314 H 0.0 **** 0.06
34606 C 105.93104271308363 44.57733612971805 72.96487821012946 C 0.0 **** -0.24
34607 H 105.89813557781079 44.21337883199834 73.99246162448722 H 0.0 **** 0.06
34608 H 106.43446288873105 43.8418609977179 72.33599511626096 H 0.0 **** 0.06
34609 H 106.47631406064014 45.52025393241263 72.93044659504551 H 0.0 **** 0.06
34610 H 104.9153703533722 44.7310948484656 72.60178972917493 H 0.0 **** 0.06
34611 C 87.07983878703214 44.869644093879685 4.236811968575509 C 0.0 **** -0.24
34612 H 87.42534740899757 45.564223048976345 5.003030803271756 H 0.0 **** 0.06
34613 H 86.16317398362463 45.25305266829221 3.7869008847215753 H 0.0 **** 0.06
34614 H 86.8845084532183 43.897609749008836 4.688798292550814 H 0.0 **** 0.06
34615 H 87.84608149971436 44.76596903969369 3.469384509179875 H 0.0 **** 0.06
34616 C 75.19215171836936 110.94061828605606 98.24642566158158 C 0.0 **** -0.24
34617 H 76.08637714804973 111.54733826316877 98.38817588265962 H 0.0 **** 0.06
34618 H 75.42494999606808 110.09558719037904 97.59905192321295 H 0.0 **** 0.06
34619 H 74.4110893633684 111.54725662222263 97.78802635766155 H 0.0 **** 0.06
34620 H 74.84592921834172 110.57408766996122 99.2128368997245 H 0.0 **** 0.06
34621 C 83.50233831716264 58.155767861909474 31.2755991195407 C 0.0 **** -0.24
34622 H 83.98598315390839 58.500580175238206 32.18905928832858 H 0.0 **** 0.06
34623 H 82.49389553810096 58.56663168324747 31.219576652059622 H 0.0 **** 0.06
34624 H 83.45158771847636 57.06661778564787 31.280386604377973 H 0.0 **** 0.06
34625 H 84.07863987948028 58.488410344605704 30.412054158730477 H 0.0 **** 0.06
34626 C 93.96678758085508 44.09354559892757 14.493632095721317 C 0.0 **** -0.24
34627 H 94.08789693303271 44.621075960456814 15.440351534801046 H 0.0 **** 0.06
34628 H 92.93126121853206 43.769531163189484 14.388922032911022 H 0.0 **** 0.06
34629 H 94.62402397656317 43.224050694397455 14.475102836624107 H 0.0 **** 0.06
34630 H 94.22450682015926 44.76152515752605 13.670993315043368 H 0.0 **** 0.06
34631 C 30.764234026840995 7.21106647889755 71.021367713161 C 0.0 **** -0.24
34632 H 31.645295109051858 6.715395225300583 71.4281474191884 H 0.0 **** 0.06
34633 H 30.832231831856348 8.28257982431272 71.20660480627447 H 0.0 **** 0.06
34634 H 29.87039625065438 6.8143161671956705 71.50272787724529 H 0.0 **** 0.06
34635 H 30.709667083119257 7.029838093896657 69.9480760042918 H 0.0 **** 0.06
34636 C 7.2356905656188815 60.5769293082148 70.49304574558221 C 0.0 **** -0.24
34637 H 7.655035334170293 61.033737923190415 71.38978945281343 H 0.0 **** 0.06
34638 H 7.662949938962569 59.582808318704565 70.35771897557203 H 0.0 **** 0.06
34639 H 7.470633413220909 61.195164090975084 69.62701516713014 H 0.0 **** 0.06
34640 H 6.154010796255875 60.495997999553765 70.59865052101856 H 0.0 **** 0.06
34641 C 11.402705255755095 104.99347024149247 109.82743302097114 C 0.0 **** -0.24
34642 H 11.098430294454502 104.16507367778595 110.46760588954874 H 0.0 **** 0.06
34643 H 12.284364406901915 104.70450555041887 109.25528448915168 H 0.0 **** 0.06
34644 H 11.63792248570958 105.86126279029418 110.4446407709798 H 0.0 **** 0.06
34645 H 10.590564085666529 105.24276453262226 109.14437191331768 H 0.0 **** 0.06
34646 C 79.4492876821055 22.287002450334484 90.66656570844788 C 0.0 **** -0.24
34647 H 80.32034378184039 22.318926839516962 91.32134163663991 H 0.0 **** 0.06
34648 H 78.56072041904645 22.570019638660227 91.23130450377147 H 0.0 **** 0.06
34649 H 79.32476931852233 21.27651748485212 90.27656989538664 H 0.0 **** 0.06
34650 H 79.59098854590763 22.981586548314482 89.8390397924463 H 0.0 **** 0.06
34651 C 87.09391352988499 26.015181071208474 75.60921452195791 C 0.0 **** -0.24
34652 H 87.4116425886319 27.056175976775137 75.55902301871629 H 0.0 **** 0.06
34653 H 87.88409878448229 25.4149068761499 76.0607436706396 H 0.0 **** 0.06
34654 H 86.89000832634528 25.64885355798333 74.60250539065663 H 0.0 **** 0.06
34655 H 86.18986967166435 25.94068916950195 76.21317563076633 H 0.0 **** 0.06
34656 C 84.10390714079509 77.42263873280046 57.84108382404125 C 0.0 **** -0.24
34657 H 84.89492236661846 78.15965248204884 57.979387949410466 H 0.0 **** 0.06
34658 H 83.41930178215492 77.4614963433616 58.68891991126134 H 0.0 **** 0.06
34659 H 84.54342349911715 76.4269427163008 57.77499107509425 H 0.0 **** 0.06
34660 H 83.5591591282606 77.64160149867132 56.922730244110966 H 0.0 **** 0.06
34661 C 43.23496478812223 62.03828927087895 84.54001369355308 C 0.0 **** -0.24
34662 H 42.37304002865454 62.22232956009452 83.8984442995393 H 0.0 **** 0.06
34663 H 43.99402482448352 61.49194450432779 83.98002025095778 H 0.0 **** 0.06
34664 H 42.925203565903246 61.44987102334022 85.40384953315052 H 0.0 **** 0.06
34665 H 43.646683724077945 62.99057562932353 84.87608759516425 H 0.0 **** 0.06
34666 C 7.0223199210909115 19.239005288347528 79.26541175502015 C 0.0 **** -0.24
34667 H 7.806815857456883 19.783007336222965 78.74002023618581 H 0.0 **** 0.06
34668 H 6.548858219742243 19.898329539348026 79.99369604392271 H 0.0 **** 0.06
34669 H 7.456436489494564 18.381256315200517 79.77992894626462 H 0.0 **** 0.06
34670 H 6.276532961513411 18.893777677567357 78.54957442684037 H 0.0 **** 0.06
34671 C 9.53291938873977 106.41367411220537 42.93121373567314 C 0.0 **** -0.24
34672 H 8.705291173485989 106.12617134517342 42.28221594914615 H 0.0 **** 0.06
34673 H 9.139697051527804 106.87603884493603 43.83707381722127 H 0.0 **** 0.06
34674 H 10.173402634877718 107.12419331401847 42.40909206374775 H 0.0 **** 0.06
34675 H 10.110956531414004 105.5287988907123 43.195912134577014 H 0.0 **** 0.06
34676 C 21.894087939995984 98.90895805222138 71.4207887990039 C 0.0 **** -0.24
34677 H 22.03409344667014 99.9890227718522 71.38205866788178 H 0.0 **** 0.06
34678 H 21.646564520262217 98.5382993134601 70.42555379907031 H 0.0 **** 0.06
34679 H 21.082965991090134 98.67221531840605 72.10910154125935 H 0.0 **** 0.06
34680 H 22.813700477652105 98.43616821746002 71.76624642056476 H 0.0 **** 0.06
34681 C 105.86619871812155 38.885949462792496 104.90558096175366 C 0.0 **** -0.24
34682 H 106.03023492336519 38.16851295694036 104.10049806640959 H 0.0 **** 0.06
34683 H 106.82027313619398 39.13087544141763 105.37282146240636 H 0.0 **** 0.06
34684 H 105.19814953355848 38.45054568457593 105.64894510313835 H 0.0 **** 0.06
34685 H 105.41633521785559 39.79122406613777 104.49832908199508 H 0.0 **** 0.06
34686 C 2.816895055425846 38.60024800452754 30.339991706710407 C 0.0 **** -0.24
34687 H 1.8223798521085541 38.76146251790391 30.757378633367694 H 0.0 **** 0.06
34688 H 3.472844798523255 38.19423822609889 31.110042603392515 H 0.0 **** 0.06
34689 H 3.218937712926504 39.54949262040407 29.984288439439524 H 0.0 **** 0.06
34690 H 2.7518730029209877 37.89834510503161 29.50861703740685 H 0.0 **** 0.06
34691 C 70.1741631454463 39.43436866436578 75.71178216500047 C 0.0 **** -0.24
34692 H 69.39424733990035 39.73679376390775 76.41070905121265 H 0.0 **** 0.06
34693 H 70.88525285062414 38.78348627542571 76.22012546864659 H 0.0 **** 0.06
34694 H 70.69259007581456 40.31894025772498 75.34202143762946 H 0.0 **** 0.06
34695 H 69.72562068334352 38.90044198581204 74.87458009934784 H 0.0 **** 0.06
34696 C 11.084033666718597 24.44238763809146 78.10019480510081 C 0.0 **** -0.24
34697 H 11.138024808927355 23.35296972052879 78.09371076397969 H 0.0 **** 0.06
34698 H 10.04597414002501 24.753975657618554 78.21908447577903 H 0.0 **** 0.06
34699 H 11.474281214191592 24.83020350635924 77.15938925819535 H 0.0 **** 0.06
34700 H 11.676955146028604 24.829637895750267 78.92785092814563 H 0.0 **** 0.06
34701 C 23.507675674444073 56.93917344491135 69.7692912830725 C 0.0 **** -0.24
34702 H 23.010554944339134 57.435497366795346 70.60289247574588 H 0.0 **** 0.06
34703 H 24.30059527186873 57.58276441436001 69.38515888258667 H 0.0 **** 0.06
34704 H 22.78350699587844 56.74200213875139 68.97953845557583 H 0.0 **** 0.06
34705 H 23.938246453931527 55.99814686403355 70.11206699034648 H 0.0 **** 0.06
34706 C 44.073177279655795 17.906609806845267 14.672818697312948 C 0.0 **** -0.24
34707 H 44.419993192161144 16.873350314928643 14.703769918896285 H 0.0 **** 0.06
34708 H 44.66673909701973 18.467449656934548 13.94990549488351 H 0.0 **** 0.06
34709 H 44.18189086572971 18.35547572188665 15.659239517964835 H 0.0 **** 0.06
34710 H 43.024518734023616 17.929390230608078 14.376871609388118 H 0.0 **** 0.06
34711 C 65.29798483604105 64.68066627130264 8.357696009224696 C 0.0 **** -0.24
34712 H 66.23663755276974 65.13634318387125 8.04306607463883 H 0.0 **** 0.06
34713 H 64.84965754638961 64.15319295498767 7.515415792589181 H 0.0 **** 0.06
34714 H 64.61672948018725 65.45643714496288 8.705654367531736 H 0.0 **** 0.06
34715 H 65.4901027002075 63.976006963017824 9.166994095890459 H 0.0 **** 0.06
34716 C 4.391295634748786 12.44804603290089 37.920222756364524 C 0.0 **** -0.24
34717 H 4.246628908465141 12.441249713756832 36.84033865027982 H 0.0 **** 0.06
34718 H 3.4357615039101574 12.625654618155323 38.41387052038985 H 0.0 **** 0.06
34719 H 5.0918445797646825 13.239420877286221 38.18748001412638 H 0.0 **** 0.06
34720 H 4.792633484887602 11.485705954037968 38.23883525670112 H 0.0 **** 0.06
34721 C 28.75386593001525 12.447050475461737 35.02062587992128 C 0.0 **** -0.24
34722 H 29.71249863072933 12.92223783103628 34.81249920796185 H 0.0 **** 0.06
34723 H 28.410375101635793 11.918058928885763 34.130907127303686 H 0.0 **** 0.06
34724 H 28.02366296163956 13.209022225486216 35.295335058211464 H 0.0 **** 0.06
34725 H 28.86828519985272 11.740241635273765 35.8421061594606 H 0.0 **** 0.06
34726 C 88.42314175795872 52.595003802353176 59.91736491441162 C 0.0 **** -0.24
34727 H 89.08476657092643 53.456444622703714 59.83166394100181 H 0.0 **** 0.06
34728 H 87.65394037999619 52.800505721195634 60.66157427417937 H 0.0 **** 0.06
34729 H 89.00100097595492 51.72226644796547 60.221758791411844 H 0.0 **** 0.06
34730 H 87.9530631705054 52.401451495490505 58.952333771049666 H 0.0 **** 0.06
34731 C 58.08280858850144 26.988591014617583 5.770808646449893 C 0.0 **** -0.24
34732 H 56.993276730895204 26.962825603215705 5.7660289525716735 H 0.0 **** 0.06
34733 H 58.42452640129277 27.797957155068246 6.416954796747362 H 0.0 **** 0.06
34734 H 58.44691264997797 27.154696593455583 4.756458305767197 H 0.0 **** 0.06
34735 H 58.46735834998105 26.038670092323983 6.1432937621763415 H 0.0 **** 0.06
34736 C 79.88019042201728 21.25889651292607 86.85698826862767 C 0.0 **** -0.24
34737 H 79.7749193504429 20.736429261452315 87.8078706849349 H 0.0 **** 0.06
34738 H 79.09921518554191 22.013319675201643 86.7691549744425 H 0.0 **** 0.06
34739 H 79.7901330991626 20.544288773206915 86.03864734534952 H 0.0 **** 0.06
34740 H 80.85783250370287 21.739440610880706 86.81360915724687 H 0.0 **** 0.06
34741 C 110.36627269795815 13.589622046658633 65.2497329629262 C 0.0 **** -0.24
34742 H 111.44249970923408 13.698583594141212 65.3795140379064 H 0.0 **** 0.06
34743 H 109.84737892835818 14.239887772705174 65.95430457364876 H 0.0 **** 0.06
34744 H 110.08162508776888 12.553379892137286 65.43427122130942 H 0.0 **** 0.06
34745 H 110.09341950809034 13.86524841663703 64.2318638463816 H 0.0 **** 0.06
34746 C 63.8926082569817 29.647793926733733 63.16207717745377 C 0.0 **** -0.24
34747 H 64.08876495868037 28.897276488767595 63.92813366453882 H 0.0 **** 0.06
34748 H 64.62763429762805 29.550802006438296 62.362071073617614 H 0.0 **** 0.06
34749 H 63.96239132121872 30.642769207632824 63.602167995394694 H 0.0 **** 0.06
34750 H 62.89182725552121 29.499002363951313 62.75639274614045 H 0.0 **** 0.06
34751 C 55.04323420565433 102.68128185100929 69.26502137128634 C 0.0 **** -0.24
34752 H 55.528818054390996 103.31997202461503 70.00291132455033 H 0.0 **** 0.06
34753 H 53.96956817957559 102.66398197759682 69.45053237577105 H 0.0 **** 0.06
34754 H 55.44243984261149 101.6702726793099 69.34117686086293 H 0.0 **** 0.06
34755 H 55.233533070276934 103.07257131741673 68.26503319481455 H 0.0 **** 0.06
34756 C 60.19688063005864 92.43309234808152 70.87062459090336 C 0.0 **** -0.24
34757 H 59.99617824050787 93.45741749584053 70.55657533534603 H 0.0 **** 0.06
34758 H 61.08184669312275 92.06192160522235 70.35481098713745 H 0.0 **** 0.06
34759 H 59.34101758505066 91.80405070157803 70.62459312900145 H 0.0 **** 0.06
34760 H 60.3664523814084 92.41112177311231 71.94706692419604 H 0.0 **** 0.06
34761 C 96.92203282450606 102.41337519647959 9.98517994614366 C 0.0 **** -0.24
34762 H 97.2418526299547 103.44634780462559 10.127448548064194 H 0.0 **** 0.06
34763 H 96.97023326889871 102.1621418976147 8.925011086966606 H 0.0 **** 0.06
34764 H 95.89843754324991 102.29828402449863 10.34047005607573 H 0.0 **** 0.06
34765 H 97.57883365631758 101.74965534950974 10.546829284908085 H 0.0 **** 0.06
34766 C 38.913717962427626 27.46331803293854 21.34771284402845 C 0.0 **** -0.24
34767 H 38.56520778647305 27.43636759852903 20.31527896178298 H 0.0 **** 0.06
34768 H 39.31589860949168 26.486810368944575 21.620454461418603 H 0.0 **** 0.06
34769 H 38.08056423705932 27.709894553900845 22.00644140904015 H 0.0 **** 0.06
34770 H 39.69226105161502 28.218436608568815 21.448766772180733 H 0.0 **** 0.06
34771 C 27.79922011496808 70.05714399762434 75.12807696389746 C 0.0 **** -0.24
34772 H 27.04698557552777 70.44610218933795 74.44192821649361 H 0.0 **** 0.06
34773 H 28.308262910667594 70.88769654033572 75.61797526282041 H 0.0 **** 0.06
34774 H 28.524046183072244 69.46255719334886 74.57164627042062 H 0.0 **** 0.06
34775 H 27.316117402551043 69.43172989222049 75.87914446142025 H 0.0 **** 0.06
34776 C 33.30466712524918 91.85560252896431 73.75639289605391 C 0.0 **** -0.24
34777 H 33.41919612076032 91.77008670503648 72.67535284219503 H 0.0 **** 0.06
34778 H 34.26289846513989 92.12166676550402 74.20361874769264 H 0.0 **** 0.06
34779 H 32.965503232328345 90.90320241633043 74.16250889914795 H 0.0 **** 0.06
34780 H 32.57058115699547 92.62932647070721 73.98297066710342 H 0.0 **** 0.06
34781 C 5.044609228002571 62.66711831505905 50.9872923347525 C 0.0 **** -0.24
34782 H 5.305382559412081 62.315320505577354 51.98599800788344 H 0.0 **** 0.06
34783 H 5.930364622361338 63.08424398751145 50.50649608239868 H 0.0 **** 0.06
34784 H 4.275828081942279 63.43644114113817 51.06283938007458 H 0.0 **** 0.06
34785 H 4.667232398404096 61.833595792586316 50.39573061616934 H 0.0 **** 0.06
34786 C 84.48276273420134 47.31492773875768 59.1681801879596 C 0.0 **** -0.24
34787 H 85.10882511951883 46.85743791928424 58.40186343452893 H 0.0 **** 0.06
34788 H 84.51767817525041 48.39940042587157 59.06533428471017 H 0.0 **** 0.06
34789 H 84.85075046849852 47.03114785184488 60.154125109836095 H 0.0 **** 0.06
34790 H 83.45538899036941 46.970343405557735 59.05014959393504 H 0.0 **** 0.06
34791 C 93.31311179403 21.335960882839032 14.725340019898226 C 0.0 **** -0.24
34792 H 94.36639354393284 21.43683253135916 14.464881162052421 H 0.0 **** 0.06
34793 H 92.7764109438018 22.23502396994371 14.42025605072007 H 0.0 **** 0.06
34794 H 93.21685180305315 21.204576767446156 15.803478074060052 H 0.0 **** 0.06
34795 H 92.8935375235271 20.470087104330275 14.213875084895307 H 0.0 **** 0.06
34796 C 18.44065045193895 53.40027256572509 46.1186448498255 C 0.0 **** -0.24
34797 H 18.591486778065786 53.19012806964906 45.06005330884891 H 0.0 **** 0.06
34798 H 19.31581490491706 53.07386926998868 46.68149165267553 H 0.0 **** 0.06
34799 H 17.55944633701273 52.86466278625389 46.472778866509174 H 0.0 **** 0.06
34800 H 18.296356876508156 54.47127405168166 46.25961488267407 H 0.0 **** 0.06
34801 C 14.841205778132405 17.533667141932142 21.034081419679186 C 0.0 **** -0.24
34802 H 14.009456558059355 16.837887006012778 20.91864879138844 H 0.0 **** 0.06
34803 H 15.707826988644456 17.000182209147454 21.425496718012283 H 0.0 **** 0.06
34804 H 14.558605913454528 18.3258024242391 21.726690502004516 H 0.0 **** 0.06
34805 H 15.089366828592006 17.967851628724645 20.065861257293633 H 0.0 **** 0.06
34806 C 14.9518514490438 40.625948576338914 44.614960897876415 C 0.0 **** -0.24
34807 H 14.719435477447874 41.247865980090836 45.478522626985836 H 0.0 **** 0.06
34808 H 15.300896947476147 41.25615022981455 43.79650164489672 H 0.0 **** 0.06
34809 H 14.056288467004308 40.08868130585137 44.302955751737954 H 0.0 **** 0.06
34810 H 15.730451270855355 39.91051702484097 44.88061750406936 H 0.0 **** 0.06
34811 C 106.68594033165773 60.904477655764026 39.79380344665566 C 0.0 **** -0.24
34812 H 106.135939722123 59.976803935726025 39.9535288863853 H 0.0 **** 0.06
34813 H 107.75505412981661 60.69098700808206 39.75916365838896 H 0.0 **** 0.06
34814 H 106.47886577495686 61.594591029404796 40.61267409515847 H 0.0 **** 0.06
34815 H 106.37378296729113 61.35477463803693 38.851695820727116 H 0.0 **** 0.06
34816 C 64.57695875815804 4.1104928106286565 45.955350965170304 C 0.0 **** -0.24
34817 H 63.88315866365485 3.40161801947238 45.50492197828788 H 0.0 **** 0.06
34818 H 64.41027150226711 5.100574638819523 45.53181031309678 H 0.0 **** 0.06
34819 H 65.60074544398742 3.795239430231078 45.75234960173567 H 0.0 **** 0.06
34820 H 64.41391060535972 4.143562004449606 47.03331302734887 H 0.0 **** 0.06
34821 C 48.48999515632852 68.89246039232003 78.17760888859937 C 0.0 **** -0.24
34822 H 48.25658285503417 68.73697576097564 77.12463710491423 H 0.0 **** 0.06
34823 H 48.63275277069337 67.92728723549826 78.66412966016205 H 0.0 **** 0.06
34824 H 47.6692221138599 69.424173613644 78.65745153943999 H 0.0 **** 0.06
34825 H 49.403626515572746 69.48104837879993 78.26408629353338 H 0.0 **** 0.06
34826 C 103.15407915437828 12.38696630229235 95.11431492903364 C 0.0 **** -0.24
34827 H 102.70524325283321 12.251061301160576 96.09928633304938 H 0.0 **** 0.06
34828 H 103.4470718237871 11.417078850309466 94.71254757491334 H 0.0 **** 0.06
34829 H 104.033250738694 13.02548033721611 95.20172518301538 H 0.0 **** 0.06
34830 H 102.43046195626783 12.85464527858845 94.44727229964352 H 0.0 **** 0.06
34831 C 80.2466539600635 48.57110848961575 18.60694586332238 C 0.0 **** -0.24
34832 H 80.89811832133461 48.652768775162286 19.477299929858873 H 0.0 **** 0.06
34833 H 80.20163382951563 49.53341167311888 18.095697160796078 H 0.0 **** 0.06
34834 H 79.24626949064282 48.28266631112163 18.927555183941763 H 0.0 **** 0.06
34835 H 80.64219018872248 47.816160076325914 17.92687791129748 H 0.0 **** 0.06
34836 C 64.29490326951503 72.55629977135371 88.56419535556091 C 0.0 **** -0.24
34837 H 65.123601305237 71.86811486769167 88.7273744878691 H 0.0 **** 0.06
34838 H 64.10061372863458 72.64392632792959 87.49493599184837 H 0.0 **** 0.06
34839 H 64.55168172327771 73.53579501496722 88.96831330195806 H 0.0 **** 0.06
34840 H 63.40357039695829 72.17890064058042 89.06537396151597 H 0.0 **** 0.06
34841 C 43.98831055754016 33.73569143748327 43.354469625330864 C 0.0 **** -0.24
34842 H 44.649868776445885 33.16774046541765 42.701070243269754 H 0.0 **** 0.06
34843 H 44.55555821655804 34.11135683930668 44.207609788879154 H 0.0 **** 0.06
34844 H 43.18542497987613 33.08930266207406 43.709211362770446 H 0.0 **** 0.06
34845 H 43.56441797581164 34.57449278635039 42.80219453437695 H 0.0 **** 0.06
34846 C 99.18144152266666 61.70474835836031 80.4604291630269 C 0.0 **** -0.24
34847 H 99.775132980193 60.90197981530935 80.896279411936 H 0.0 **** 0.06
34848 H 99.74532620397804 62.17742787187046 79.65515552448144 H 0.0 **** 0.06
34849 H 98.95351895710075 62.44537501398552 81.22785337773095 H 0.0 **** 0.06
34850 H 98.2533912262148 61.295765296856935 80.06231381276473 H 0.0 **** 0.06
34851 C 35.19008535553505 112.03301333430421 74.99318196101802 C 0.0 **** -0.24
34852 H 34.75082806213982 111.17756769824116 75.50589450778725 H 0.0 **** 0.06
34853 H 34.73908445250791 112.95257207242724 75.3682451434224 H 0.0 **** 0.06
34854 H 35.00669978804811 111.94852989247423 73.92271683325117 H 0.0 **** 0.06
34855 H 36.26501471161487 112.05400460274423 75.17685210959377 H 0.0 **** 0.06
34856 C 30.186536676144215 89.57680246407185 41.40351179426776 C 0.0 **** -0.24
34857 H 29.636431354570107 88.63723395985733 41.44832821622202 H 0.0 **** 0.06
34858 H 29.495838581160967 90.39157084202984 41.18487726780097 H 0.0 **** 0.06
34859 H 30.939651504480878 89.51870048183775 40.618136366025084 H 0.0 **** 0.06
34860 H 30.673093111958906 89.75980405598898 42.36077954988224 H 0.0 **** 0.06
34861 C 68.02293873554558 55.59946758394733 24.82639771245536 C 0.0 **** -0.24
34862 H 68.81862464640443 55.944508042481175 25.485593680175953 H 0.0 **** 0.06
34863 H 67.81960557283614 54.54600651941422 25.02362070554804 H 0.0 **** 0.06
34864 H 68.33202323574147 55.7217035125812 23.78880796670944 H 0.0 **** 0.06
34865 H 67.12131609850894 56.184401776516836 25.008202557523703 H 0.0 **** 0.06
34866 C 42.38379816526128 25.24649560421973 29.740098200517878 C 0.0 **** -0.24
34867 H 42.24828560250728 24.66951896599565 30.6548203917705 H 0.0 **** 0.06
34868 H 43.20022871661547 25.956174431082346 29.874758961281117 H 0.0 **** 0.06
34869 H 41.46521959967282 25.788239289711527 29.512623719155954 H 0.0 **** 0.06
34870 H 42.620447010219294 24.571741677191454 28.917250786224344 H 0.0 **** 0.06
34871 C 2.735627107599802 103.47791916157914 68.82282714469858 C 0.0 **** -0.24
34872 H 2.351364137675951 103.2857127591401 69.82412830200497 H 0.0 **** 0.06
34873 H 3.7997059548407144 103.70632878873911 68.8802868524227 H 0.0 **** 0.06
34874 H 2.204846004474014 104.32424134984203 68.38593515903241 H 0.0 **** 0.06
34875 H 2.585496144263846 102.59561736715926 68.2000931193675 H 0.0 **** 0.06
34876 C 70.14249200050352 46.17822570196208 29.89573593923855 C 0.0 **** -0.24
34877 H 69.24050676727276 46.732118932837295 29.634035040061413 H 0.0 **** 0.06
34878 H 69.87524579812725 45.32293194483998 30.517679296903943 H 0.0 **** 0.06
34879 H 70.82250014132765 46.82846776180739 30.444025510364185 H 0.0 **** 0.06
34880 H 70.62917159743714 45.827223235513 28.985512530128993 H 0.0 **** 0.06
34881 C 111.86005448309606 28.86320782169642 98.9901312666712 C 0.0 **** -0.24
34882 H 111.20897917375743 28.339330343484306 98.29138121566785 H 0.0 **** 0.06
34883 H 111.74684255709826 28.433340529301404 99.98523354536746 H 0.0 **** 0.06
34884 H 111.58919175409883 29.919382562325183 99.0171270805728 H 0.0 **** 0.06
34885 H 112.89655861549556 28.76214284544062 98.66564160145774 H 0.0 **** 0.06
34886 C 70.50484471321832 60.60135974559265 88.35709917395596 C 0.0 **** -0.24
34887 H 71.08878122521483 61.10976638194884 87.5901909632268 H 0.0 **** 0.06
34888 H 71.1323640282896 60.420291819754716 89.2306896943143 H 0.0 **** 0.06
34889 H 70.14220760782544 59.650020396957665 87.96690409063623 H 0.0 **** 0.06
34890 H 69.65665379015394 61.22380428815908 88.64104160531781 H 0.0 **** 0.06
34891 C 82.79573987655519 81.21225554040385 28.54398707470736 C 0.0 **** -0.24
34892 H 83.8517741553458 81.42242552954716 28.709508953082434 H 0.0 **** 0.06
34893 H 82.61173443237305 80.14677182237307 28.684000887257184 H 0.0 **** 0.06
34894 H 82.52321071970476 81.49815039771221 27.52847275568928 H 0.0 **** 0.06
34895 H 82.19660519529617 81.78094047505536 29.254538564796462 H 0.0 **** 0.06
34896 C 73.02281288429157 95.17257296155549 66.7445774667647 C 0.0 **** -0.24
34897 H 73.28887501859643 95.35590856506167 65.70408656069648 H 0.0 **** 0.06
34898 H 71.95810976114132 95.35848144148119 66.88689297435079 H 0.0 **** 0.06
34899 H 73.59697333381379 95.8386564250579 67.38884604815232 H 0.0 **** 0.06
34900 H 73.2485432779572 94.13719630700493 67.00033785775375 H 0.0 **** 0.06
34901 C 31.524791217969664 28.394997460198056 20.716234313470313 C 0.0 **** -0.24
34902 H 31.591582801715248 27.724716676889983 19.859150911203283 H 0.0 **** 0.06
34903 H 32.362798498500666 28.210427817716578 21.38843237841745 H 0.0 **** 0.06
34904 H 30.588327799249527 28.215694115703883 21.244645118373718 H 0.0 **** 0.06
34905 H 31.55515885477243 29.428095455444264 20.370918962079024 H 0.0 **** 0.06
34906 C 44.41254690880427 13.927110730082035 94.91043653555039 C 0.0 **** -0.24
34907 H 44.98386955753182 13.73691023423946 95.81921572364803 H 0.0 **** 0.06
34908 H 44.73057099817959 14.874037858455893 94.47360348741466 H 0.0 **** 0.06
34909 H 43.35090287035547 13.976371426035996 95.15181112133962 H 0.0 **** 0.06
34910 H 44.586673030558956 13.120510267101196 94.19764468146576 H 0.0 **** 0.06
34911 C 90.16696974950037 11.488053340504898 82.47928351566878 C 0.0 **** -0.24
34912 H 91.20777894638718 11.481636320107977 82.80380078410309 H 0.0 **** 0.06
34913 H 89.75675912886808 10.481735793192819 82.55337491830053 H 0.0 **** 0.06
34914 H 90.11173111469907 11.82767855335371 81.44478952124783 H 0.0 **** 0.06
34915 H 89.59405815090446 12.163857657779168 83.11430652297321 H 0.0 **** 0.06
34916 C 10.745974610701865 40.97781285698703 29.14384231533748 C 0.0 **** -0.24
34917 H 10.872546016011768 40.03955048863463 28.603682340218768 H 0.0 **** 0.06
34918 H 11.253972447577183 41.77829544709354 28.60493854327879 H 0.0 **** 0.06
34919 H 11.173567675111343 40.88368315505765 30.142316747206024 H 0.0 **** 0.06
34920 H 9.68398094004246 41.21048066991359 29.223801908419233 H 0.0 **** 0.06
34921 C 11.668437659882557 94.52652395667158 56.83831545409248 C 0.0 **** -0.24
34922 H 10.838959693099472 95.13585333076733 56.48035963407355 H 0.0 **** 0.06
34923 H 12.563147529162077 94.75243083248782 56.25715730864755 H 0.0 **** 0.06
34924 H 11.41938931800911 93.47103039056344 56.727294452117206 H 0.0 **** 0.06
34925 H 11.854120576457628 94.74704999347773 57.89001387682197 H 0.0 **** 0.06
34926 C 39.425724934389564 26.07852606230034 25.818572956716366 C 0.0 **** -0.24
34927 H 38.814865825704715 26.842516244005083 25.337323998382118 H 0.0 **** 0.06
34928 H 40.48091341222306 26.31700507108178 25.677181471118388 H 0.0 **** 0.06
34929 H 39.209447347061484 25.107472533856935 25.374437418845275 H 0.0 **** 0.06
34930 H 39.198377252148134 26.050374569578253 26.883660674156403 H 0.0 **** 0.06
34931 C 84.25645302723044 7.751580092458482 109.4558674283793 C 0.0 **** -0.24
34932 H 83.89168348763283 7.490227547712777 108.46264066355515 H 0.0 **** 0.06
34933 H 85.29851355745035 8.065395616923297 109.38954929030702 H 0.0 **** 0.06
34934 H 84.17902067573056 6.884136043118872 110.11140266494913 H 0.0 **** 0.06
34935 H 83.65523617607519 8.56695046879048 109.85981533868673 H 0.0 **** 0.06
34936 C 62.07753503929797 64.10842233317396 44.75777722371245 C 0.0 **** -0.24
34937 H 61.01382836901104 64.33269397889103 44.682122060855534 H 0.0 **** 0.06
34938 H 62.48994517211105 64.59878986845206 45.64022269943757 H 0.0 **** 0.06
34939 H 62.589995475961075 64.47170734768679 43.86640931595423 H 0.0 **** 0.06
34940 H 62.21584659006919 63.031105488204105 44.842951500513465 H 0.0 **** 0.06
34941 C 80.19486913559456 35.781038233190344 0.8148978625816312 C 0.0 **** -0.24
34942 H 80.49690033617182 36.69686749212994 1.323120570437709 H 0.0 **** 0.06
34943 H 80.75345119994245 34.93828023249506 1.2236710150042427 H 0.0 **** 0.06
34944 H 80.40223474611679 35.87213584069826 -0.2514539256962962 H 0.0 **** 0.06
34945 H 79.12865277925263 35.61797403141034 0.9650744778110152 H 0.0 **** 0.06
34946 C 34.49751076744779 106.32739620141288 53.315754318786105 C 0.0 **** -0.24
34947 H 33.701391901837155 107.03040047181095 53.071803288895836 H 0.0 **** 0.06
34948 H 35.38932069312327 106.87803620647698 53.6172822732712 H 0.0 **** 0.06
34949 H 34.724310846907954 105.71775953500565 52.442084958167385 H 0.0 **** 0.06
34950 H 34.17488947292213 105.683749291395 54.13426611344886 H 0.0 **** 0.06
34951 C 38.2713805645431 39.1525761204465 93.48626954281153 C 0.0 **** -0.24
34952 H 38.38835741848307 39.01959561499906 94.56143508715445 H 0.0 **** 0.06
34953 H 37.210845737822815 39.17971518855242 93.23685078237628 H 0.0 **** 0.06
34954 H 38.746551857210676 38.32159259586186 92.96392571501954 H 0.0 **** 0.06
34955 H 38.74032650900277 40.08857234412994 93.18288833615941 H 0.0 **** 0.06
34956 C 68.66776859203497 59.67297214454742 48.00569895137587 C 0.0 **** -0.24
34957 H 67.91769477420016 60.348591019529316 47.59584442388618 H 0.0 **** 0.06
34958 H 68.18462203744252 58.75354382746594 48.338453283815944 H 0.0 **** 0.06
34959 H 69.16266689456589 60.14972986190302 48.85139339983954 H 0.0 **** 0.06
34960 H 69.40536746711766 59.43879378418713 47.23808655847577 H 0.0 **** 0.06
34961 C 46.43459779112524 80.97673278929227 73.08753526899122 C 0.0 **** -0.24
34962 H 45.4371085103318 81.28859489972928 73.39794399389166 H 0.0 **** 0.06
34963 H 46.82545124629178 81.68661874041601 72.357118249459 H 0.0 **** 0.06
34964 H 46.38119885585178 79.98441062725635 72.63863803726366 H 0.0 **** 0.06
34965 H 47.093238872186504 80.94871487786787 73.95500011274979 H 0.0 **** 0.06
34966 C 103.33778378792692 68.92166195269033 89.00929631611373 C 0.0 **** -0.24
34967 H 104.07225179932394 69.50071888539935 89.57003088733592 H 0.0 **** 0.06
34968 H 103.25134924237389 67.92557487910301 89.44488221373592 H 0.0 **** 0.06
34969 H 103.65814164432618 68.837124828485 87.97056018753517 H 0.0 **** 0.06
34970 H 102.37078068937771 69.42306038923971 89.05192279650365 H 0.0 **** 0.06
34971 C 66.69471824308565 110.36317494252256 96.09622338628134 C 0.0 **** -0.24
34972 H 65.9049576862036 109.62713499088505 95.94309635173056 H 0.0 **** 0.06
34973 H 66.81478952743495 110.96030113230688 95.19183152698184 H 0.0 **** 0.06
34974 H 67.63006781646021 109.85079195786966 96.31965614782135 H 0.0 **** 0.06
34975 H 66.42859010603627 111.0134462101052 96.92945533142938 H 0.0 **** 0.06
34976 C 106.97298156757287 61.77268961081936 64.99088804004793 C 0.0 **** -0.24
34977 H 106.12202187744208 62.25532918666344 64.51136851649369 H 0.0 **** 0.06
34978 H 106.67732316893029 60.78565539104432 65.34727404105041 H 0.0 **** 0.06
34979 H 107.30672356697121 62.37856008434523 65.83397682694223 H 0.0 **** 0.06
34980 H 107.7862563348572 61.67180573460379 64.27215374276824 H 0.0 **** 0.06
34981 C 75.00503912758938 81.94061531329513 49.0643865327022 C 0.0 **** -0.24
34982 H 75.32082588814356 82.96930607984262 49.23722287474581 H 0.0 **** 0.06
34983 H 75.40044372144709 81.59521344452114 48.10937756809878 H 0.0 **** 0.06
34984 H 73.91632935568438 81.89326226164391 49.04627308547657 H 0.0 **** 0.06
34985 H 75.38268129198957 81.30567804463874 49.86566640488033 H 0.0 **** 0.06
34986 C 75.20450651783625 2.7398146997263666 23.991207894559896 C 0.0 **** -0.24
34987 H 75.76406948098392 2.6902862247597454 24.925692057664133 H 0.0 **** 0.06
34988 H 75.33861172874492 1.810851575323511 23.437879203444062 H 0.0 **** 0.06
34989 H 75.5687532179654 3.5756618302071956 23.394010860445825 H 0.0 **** 0.06
34990 H 74.14592704951326 2.884185627143495 24.210002324197934 H 0.0 **** 0.06
34991 C 49.9146766229986 26.907493210058306 90.84711097422147 C 0.0 **** -0.24
34992 H 50.76362976794607 27.587106826573297 90.77072839614951 H 0.0 **** 0.06
34993 H 50.277139160336276 25.889882508789235 90.99658279303014 H 0.0 **** 0.06
34994 H 49.32749080917432 26.954304679502656 89.93064502984288 H 0.0 **** 0.06
34995 H 49.29147395702802 27.200140480433625 91.69309708138721 H 0.0 **** 0.06
34996 C 22.9083241344228 91.65870752695128 57.11345904533214 C 0.0 **** -0.24
34997 H 22.000623571563324 92.24698046902537 56.97994122983589 H 0.0 **** 0.06
34998 H 23.67822314682175 92.27868948470015 57.57390158325081 H 0.0 **** 0.06
34999 H 23.257653725075357 91.30315103604954 56.14458146999766 H 0.0 **** 0.06
35000 H 22.69635475327371 90.80566212269645 57.75835898543526 H 0.0 **** 0.06
35001 C 67.01775010814492 63.84721616351266 16.55832641275639 C 0.0 **** -0.24
35002 H 67.06603849768851 63.11745556021682 15.751314038413934 H 0.0 **** 0.06
35003 H 65.98160724340971 64.14677921972427 16.715403856371655 H 0.0 **** 0.06
35004 H 67.61284724869097 64.72172962752688 16.29284749174938 H 0.0 **** 0.06
35005 H 67.41126362121787 63.40441427022609 17.47410917744049 H 0.0 **** 0.06
35006 C 43.25453895988704 77.15496731447493 109.29199170559347 C 0.0 **** -0.24
35007 H 43.76897212642376 76.32569946857177 108.80726219287719 H 0.0 **** 0.06
35008 H 43.30462890512035 78.03671771808771 108.65330586573604 H 0.0 **** 0.06
35009 H 43.732106096867426 77.36988537329907 110.24765703215569 H 0.0 **** 0.06
35010 H 42.21105177950585 76.88617883136732 109.45939153839215 H 0.0 **** 0.06
35011 C 81.7859850241046 54.649384033223214 63.899921419225336 C 0.0 **** -0.24
35012 H 82.15393927259728 54.2767753031897 62.94389798801251 H 0.0 **** 0.06
35013 H 81.18989726433588 55.547181699496186 63.73331055364389 H 0.0 **** 0.06
35014 H 82.63042542473562 54.88750865865609 64.54587374086384 H 0.0 **** 0.06
35015 H 81.16937793909042 53.885703444080306 64.37381491321901 H 0.0 **** 0.06
35016 C 90.9368145359341 96.95916333728925 57.099286732788784 C 0.0 **** -0.24
35017 H 90.02773991070191 97.16306550625924 57.665434809203845 H 0.0 **** 0.06
35018 H 90.79748400684056 96.05741628732389 56.502103584299476 H 0.0 **** 0.06
35019 H 91.76814453465815 96.81410353233443 57.78903847432835 H 0.0 **** 0.06
35020 H 91.15211867067228 97.80122705799897 56.44284091626426 H 0.0 **** 0.06
35021 C 55.070455360025846 29.018479768841324 21.943272446224853 C 0.0 **** -0.24
35022 H 54.850638716384736 28.74640123610412 22.975831078351746 H 0.0 **** 0.06
35023 H 55.792031765984206 29.835784757437807 21.929042942140484 H 0.0 **** 0.06
35024 H 54.152761091962844 29.33382877701205 21.448056784252856 H 0.0 **** 0.06
35025 H 55.48639212063114 28.1562948361003 21.422005583989915 H 0.0 **** 0.06
35026 C 62.05975878488036 13.478247199027237 80.44591673591685 C 0.0 **** -0.24
35027 H 62.966113081429825 12.921375401839256 80.68635623696349 H 0.0 **** 0.06
35028 H 62.21760510740546 14.536208221378104 80.65397530543558 H 0.0 **** 0.06
35029 H 61.23365466320524 13.10691522061478 81.05360499297242 H 0.0 **** 0.06
35030 H 61.82247501098996 13.345806101046435 79.39010037702408 H 0.0 **** 0.06
35031 C 12.376924463121838 103.21145414358281 4.309764852822704 C 0.0 **** -0.24
35032 H 13.284709457337101 103.63615895712252 3.8818424476255124 H 0.0 **** 0.06
35033 H 12.366821499104276 103.38404670561462 5.385632914670861 H 0.0 **** 0.06
35034 H 12.349109345978633 102.14001914500855 4.111798331851311 H 0.0 **** 0.06
35035 H 11.505520529858728 103.68781182668667 3.857195409023321 H 0.0 **** 0.06
35036 C 9.86718816370032 2.680910674785423 80.61773741857886 C 0.0 **** -0.24
35037 H 9.286095265868795 2.0811418824292502 79.91724771266954 H 0.0 **** 0.06
35038 H 9.332636390946703 3.6050752592531694 80.83587859663328 H 0.0 **** 0.06
35039 H 10.836869571135793 2.91540885522582 80.17783629352064 H 0.0 **** 0.06
35040 H 10.014050638952412 2.1193890362672505 81.54052302200671 H 0.0 **** 0.06
35041 C 26.19130280417538 77.57081106478574 39.140542317463556 C 0.0 **** -0.24
35042 H 27.133817662144125 77.95042493489643 38.74727474317433 H 0.0 **** 0.06
35043 H 25.49459112273053 78.39813820370492 39.27624433889437 H 0.0 **** 0.06
35044 H 26.368185214813963 77.08424028455912 40.09980447409228 H 0.0 **** 0.06
35045 H 25.769161179581964 76.85020706321447 38.43965163660545 H 0.0 **** 0.06
35046 C 38.97135827569153 101.69142229925637 14.020842672411845 C 0.0 **** -0.24
35047 H 39.40900391182669 101.87490794199229 15.002585896402024 H 0.0 **** 0.06
35048 H 39.45075847048213 100.82462429054539 13.566097637535876 H 0.0 **** 0.06
35049 H 39.122966738206316 102.56637057221548 13.387857802849311 H 0.0 **** 0.06
35050 H 37.90335979343624 101.50203182240983 14.12870777392584 H 0.0 **** 0.06
35051 C 70.66864875474022 82.96523285130226 38.577109490436484 C 0.0 **** -0.24
35052 H 70.35024719219004 83.12908291859796 39.607114368465226 H 0.0 **** 0.06
35053 H 71.65262335599775 83.40904138804632 38.42628062640715 H 0.0 **** 0.06
35054 H 69.95280035573492 83.42830186611846 37.89790145740689 H 0.0 **** 0.06
35055 H 70.71821717667737 81.89475622847749 38.37834040587295 H 0.0 **** 0.06
35056 C 10.008922904132334 27.677426143081334 51.543652826403836 C 0.0 **** -0.24
35057 H 10.880395217151687 28.324126292481708 51.64306753262825 H 0.0 **** 0.06
35058 H 10.154953218030897 26.996767640365476 50.70483428377446 H 0.0 **** 0.06
35059 H 9.12209771102738 28.28652015536602 51.36879875417861 H 0.0 **** 0.06
35060 H 9.878526028939234 27.101577842932443 52.46081141425136 H 0.0 **** 0.06
35061 C 10.096017346748852 111.70630542524731 80.265536097927 C 0.0 **** -0.24
35062 H 9.011507841916057 111.60648327770198 80.20949924886119 H 0.0 **** 0.06
35063 H 10.542799597623642 111.34430747891241 79.33968649740768 H 0.0 **** 0.06
35064 H 10.471016122768418 111.11974057180896 81.10415995462174 H 0.0 **** 0.06
35065 H 10.357271444085953 112.75448294631383 80.40968375938195 H 0.0 **** 0.06
35066 C 109.37885486186048 31.153038480098587 69.69048162896772 C 0.0 **** -0.24
35067 H 108.80632824007267 31.019594460752046 70.60862071290799 H 0.0 **** 0.06
35068 H 109.56930355290785 30.17999370216316 69.23697354413895 H 0.0 **** 0.06
35069 H 110.32767263412134 31.637110954555112 69.92224891585957 H 0.0 **** 0.06
35070 H 108.81449051296931 31.77456335325263 68.9966451957425 H 0.0 **** 0.06
35071 C 84.82232840326077 31.413991323354878 56.28839763928523 C 0.0 **** -0.24
35072 H 84.39696317714464 31.398547175002193 57.292261842561466 H 0.0 **** 0.06
35073 H 85.90937804471287 31.458359573529492 56.35595451281946 H 0.0 **** 0.06
35074 H 84.45531557086039 32.289812658213236 55.753145391561986 H 0.0 **** 0.06
35075 H 84.52725754855206 30.5110009993314 55.75462895021971 H 0.0 **** 0.06
35076 C 84.76671702685007 27.031130601100642 6.7671058488765965 C 0.0 **** -0.24
35077 H 84.06464448012096 26.78097274035852 5.971633924483868 H 0.0 **** 0.06
35078 H 85.14376769397347 26.113196101058406 7.2197453585625055 H 0.0 **** 0.06
35079 H 84.25968725215984 27.629041287838703 7.52421878008343 H 0.0 **** 0.06
35080 H 85.59894495203099 27.599685189369495 6.351002735111393 H 0.0 **** 0.06
35081 C 4.290769558676882 29.704335415278422 5.384739484009799 C 0.0 **** -0.24
35082 H 4.074944402457904 30.44152143224406 4.611687971256174 H 0.0 **** 0.06
35083 H 5.353123225363527 29.733666101740795 5.628135911997447 H 0.0 **** 0.06
35084 H 4.028517728343317 28.71006204977266 5.0219545739695945 H 0.0 **** 0.06
35085 H 3.7072852045581044 29.93157692669766 6.276852529265682 H 0.0 **** 0.06
35086 C 82.54315481789573 69.3025661078116 30.44364806933868 C 0.0 **** -0.24
35087 H 82.62436933166762 70.21694262977937 31.032509041258066 H 0.0 **** 0.06
35088 H 83.53014889936455 68.85321837201539 30.333191314165532 H 0.0 **** 0.06
35089 H 82.13904502586266 69.53965645535595 29.459557207570384 H 0.0 **** 0.06
35090 H 81.87973020721614 68.60209973085048 30.950681615679684 H 0.0 **** 0.06
35091 C 7.140446480991898 106.39967136419791 28.498762222859995 C 0.0 **** -0.24
35092 H 6.611739126721687 105.4517128073719 28.40606151580522 H 0.0 **** 0.06
35093 H 6.825748097993085 107.07123680489424 27.69992921146249 H 0.0 **** 0.06
35094 H 8.213986353464946 106.22409430431881 28.424584945274034 H 0.0 **** 0.06
35095 H 6.911613363369213 106.85109710784431 29.464368051872015 H 0.0 **** 0.06
35096 C 25.36805402515779 74.03007311624486 84.48038068285885 C 0.0 **** -0.24
35097 H 24.731091807806735 73.85922268632464 83.61151892628587 H 0.0 **** 0.06
35098 H 25.496170300519054 73.09433837594952 85.02507246682731 H 0.0 **** 0.06
35099 H 24.901297090129475 74.76894179451148 85.13197445537418 H 0.0 **** 0.06
35100 H 26.33992405046172 74.39725745123249 84.15128847312124 H 0.0 **** 0.06
35101 C 91.97742093618109 37.00654956385176 28.709822203981247 C 0.0 **** -0.24
35102 H 91.0790198302582 36.46431545410911 29.00273677676492 H 0.0 **** 0.06
35103 H 91.71941425505725 38.04021574972842 28.47910339773179 H 0.0 **** 0.06
35104 H 92.4157463953579 36.53560785468096 27.82926149842686 H 0.0 **** 0.06
35105 H 92.69676319383913 36.98506491573369 29.52883841259623 H 0.0 **** 0.06
35106 C 24.930298561120168 17.759149500813606 22.866453532823726 C 0.0 **** -0.24
35107 H 25.22919146836466 16.72554792837778 23.04319134627474 H 0.0 **** 0.06
35108 H 23.84334993120828 17.817520266883832 22.812112911443023 H 0.0 **** 0.06
35109 H 25.35988403445012 18.105271028389538 21.925784801925886 H 0.0 **** 0.06
35110 H 25.288625135279318 18.385793267852563 23.682098030224523 H 0.0 **** 0.06
35111 C 42.113203301610554 33.7623715382376 11.686584364135708 C 0.0 **** -0.24
35112 H 42.84732869510839 34.567353831984946 11.659220530005019 H 0.0 **** 0.06
35113 H 41.95067180013672 33.453280017417995 12.71888776151215 H 0.0 **** 0.06
35114 H 42.48246283983315 32.91522774225686 11.107149928255346 H 0.0 **** 0.06
35115 H 41.17430503961424 34.11240724683719 11.259156745379723 H 0.0 **** 0.06
35116 C 2.7476364172094065 104.87773479490383 58.07850236529459 C 0.0 **** -0.24
35117 H 3.484959106376195 105.39433040169723 57.46428611482316 H 0.0 **** 0.06
35118 H 1.7973501357746358 104.83504650326648 57.544791606406804 H 0.0 **** 0.06
35119 H 2.614198289595876 105.41638755279334 59.016257034045104 H 0.0 **** 0.06
35120 H 3.093686781862658 103.86563432607568 58.28651470657788 H 0.0 **** 0.06
35121 C 87.95428129669185 56.85932960088462 59.70150958389119 C 0.0 **** -0.24
35122 H 87.56516692330928 56.78242976914481 58.6860836497905 H 0.0 **** 0.06
35123 H 88.6404213016655 56.033051635897834 59.890665804975164 H 0.0 **** 0.06
35124 H 87.1285350630412 56.81550859242708 60.411201932008275 H 0.0 **** 0.06
35125 H 88.48314182817876 57.80525570594983 59.817175989045104 H 0.0 **** 0.06
35126 C 20.621515065051838 67.48421500186146 102.50031330014065 C 0.0 **** -0.24
35127 H 20.612700932322397 67.36158824391578 101.4176446838458 H 0.0 **** 0.06
35128 H 20.420284861976697 68.52556122747541 102.75011479682797 H 0.0 **** 0.06
35129 H 21.59902513564657 67.1990248356783 102.88979763423382 H 0.0 **** 0.06
35130 H 19.854644390603767 66.84864520026429 102.94300143027345 H 0.0 **** 0.06
35131 C 39.63659165905071 31.705769005366278 30.333837500764474 C 0.0 **** -0.24
35132 H 40.368315196794825 32.512364215743844 30.323932563560675 H 0.0 **** 0.06
35133 H 39.90796103650979 30.95875238338789 29.586919633845838 H 0.0 **** 0.06
35134 H 38.64977159696373 32.1072224276237 30.105608129717865 H 0.0 **** 0.06
35135 H 39.620883414078435 31.242616252861183 31.321376500337806 H 0.0 **** 0.06
35136 C 35.319295677925396 11.233709317888184 41.8570101227493 C 0.0 **** -0.24
35137 H 34.30740848391764 10.886027642336586 42.06719622686407 H 0.0 **** 0.06
35138 H 35.784403700232616 10.575149393811984 41.122752127386406 H 0.0 **** 0.06
35139 H 35.90465603017367 11.225304251675482 42.775671605860964 H 0.0 **** 0.06
35140 H 35.27800620724943 12.249331155786876 41.46077285737451 H 0.0 **** 0.06
35141 C 1.0002939061774896 65.82213372353158 79.15619348592085 C 0.0 **** -0.24
35142 H 0.10145689502286359 66.39313756578252 79.38604551333222 H 0.0 **** 0.06
35143 H 0.8374948391759176 65.23827060024811 78.25004022622164 H 0.0 **** 0.06
35144 H 1.2278288834000364 65.15135379061635 79.98527584718661 H 0.0 **** 0.06
35145 H 1.8353768624999702 66.50533633612304 79.00205386166385 H 0.0 **** 0.06
35146 C 6.828023113651028 4.24344256846922 96.85469294357725 C 0.0 **** -0.24
35147 H 6.514346672484393 3.2687473785165935 96.48202858888453 H 0.0 **** 0.06
35148 H 7.525011031626931 4.695076197435924 96.14757032856744 H 0.0 **** 0.06
35149 H 7.317721040950829 4.123152901642015 97.82108144215024 H 0.0 **** 0.06
35150 H 5.955504830639981 4.8873914222090775 96.96654163617751 H 0.0 **** 0.06
35151 C 8.661261204569017 81.69537996869465 48.24310577251941 C 0.0 **** -0.24
35152 H 8.802794046423474 82.56360863505708 48.886511407755975 H 0.0 **** 0.06
35153 H 8.11201818773091 81.9923695704571 47.34885594338736 H 0.0 **** 0.06
35154 H 8.096175443778158 80.93367417310219 48.7803820126455 H 0.0 **** 0.06
35155 H 9.63258328012269 81.29380603181005 47.956408856636074 H 0.0 **** 0.06
35156 C 65.25131051615884 17.493083944261635 9.444451596270525 C 0.0 **** -0.24
35157 H 65.94176388854595 17.833929187269867 10.215247931013465 H 0.0 **** 0.06
35158 H 65.77579307185445 16.827630420906516 8.75783516941604 H 0.0 **** 0.06
35159 H 64.86623854370862 18.35208828738878 8.894994134298443 H 0.0 **** 0.06
35160 H 64.42380588745013 16.957182345943522 9.908648664479642 H 0.0 **** 0.06
35161 C 58.99960601809281 19.618020787925133 57.84398451328747 C 0.0 **** -0.24
35162 H 59.60380138643318 19.61647245535721 56.93708654983584 H 0.0 **** 0.06
35163 H 59.07558800716014 18.645894446204835 58.33291559458752 H 0.0 **** 0.06
35164 H 57.95858600382419 19.815742374112546 57.58625411431797 H 0.0 **** 0.06
35165 H 59.360448674953666 20.393973876025797 58.519681794408484 H 0.0 **** 0.06
35166 C 4.426707048036064 1.5809963981022008 39.91742787683302 C 0.0 **** -0.24
35167 H 4.457248688749985 1.6057856122208278 38.82812484543254 H 0.0 **** 0.06
35168 H 3.771328928985781 2.3726122999693615 40.28026965950136 H 0.0 **** 0.06
35169 H 5.430999413827351 1.7305259125721761 40.31280631798384 H 0.0 **** 0.06
35170 H 4.046543130929422 0.614633005260373 40.24794951282561 H 0.0 **** 0.06
35171 C 76.4587365425771 93.70847999920238 50.64006744580493 C 0.0 **** -0.24
35172 H 76.3579799682374 94.57179971271643 49.98239916399686 H 0.0 **** 0.06
35173 H 77.51251663284893 93.55290955789394 50.87462199762027 H 0.0 **** 0.06
35174 H 76.0638123740722 92.82433962628869 50.141478449409504 H 0.0 **** 0.06
35175 H 75.90353288303294 93.88562752452776 51.56074871210191 H 0.0 **** 0.06
35176 C 27.907931629429726 80.20340544634698 56.62148078400056 C 0.0 **** -0.24
35177 H 28.11452482991251 80.8739568818921 55.78720779241506 H 0.0 **** 0.06
35178 H 28.092402849238482 80.72396381402837 57.56186145906016 H 0.0 **** 0.06
35179 H 28.557472032725798 79.33026613042631 56.55520543997861 H 0.0 **** 0.06
35180 H 26.866242274782508 79.88383116526424 56.58052955155956 H 0.0 **** 0.06
35181 C 33.01262785712055 69.58753767826309 95.79517304552058 C 0.0 **** -0.24
35182 H 33.7850642201673 70.25442511096227 95.41132458217737 H 0.0 **** 0.06
35183 H 32.136615067072 69.63726023895393 95.14833871002782 H 0.0 **** 0.06
35184 H 32.73793415807819 69.89362251340108 96.8044206928881 H 0.0 **** 0.06
35185 H 33.393106537313116 68.56583272584297 95.81623034224376 H 0.0 **** 0.06
35186 C 97.04471919406373 43.4128739592841 57.637702297941246 C 0.0 **** -0.24
35187 H 96.28835403115446 43.41717485399445 58.42392030453834 H 0.0 **** 0.06
35188 H 97.82275317189507 42.69073610112609 57.88565278498697 H 0.0 **** 0.06
35189 H 97.48386032744119 44.40680509891902 57.5509996258026 H 0.0 **** 0.06
35190 H 96.58040166934478 43.13758667027374 56.69045229616239 H 0.0 **** 0.06
35191 C 21.992583511638543 35.29523332180028 2.048842177034146 C 0.0 **** -0.24
35192 H 22.54603539671035 36.19961685081023 2.2999572627340967 H 0.0 **** 0.06
35193 H 21.8706697856434 34.68349717962852 2.9430576766069407 H 0.0 **** 0.06
35194 H 22.54151868183689 34.73167090863525 1.2942038579620316 H 0.0 **** 0.06
35195 H 21.0121101823635 35.566148348127015 1.658149910833174 H 0.0 **** 0.06
35196 C 5.683140114800608 80.02109709538925 105.5354602385433 C 0.0 **** -0.24
35197 H 4.7143831736862865 80.51299170681617 105.61547273184019 H 0.0 **** 0.06
35198 H 6.448573423068581 80.76225629452298 105.30216135583382 H 0.0 **** 0.06
35199 H 5.646722680656353 79.27431452547282 104.74139976531876 H 0.0 **** 0.06
35200 H 5.923120417647738 79.53435861350451 106.48041444738783 H 0.0 **** 0.06
35201 C 72.25915096226237 55.84824649860229 112.04651152510706 C 0.0 **** -0.24
35202 H 73.24222393860347 55.99541793104527 112.49311140268105 H 0.0 **** 0.06
35203 H 71.81489606395093 56.816716050329035 111.81908980055186 H 0.0 **** 0.06
35204 H 71.61953960354651 55.30957820392348 112.74638810281192 H 0.0 **** 0.06
35205 H 72.36081935085468 55.270282145523936 111.12795769649927 H 0.0 **** 0.06
35206 C 1.6213863473773387 38.49194534818241 24.71127570756985 C 0.0 **** -0.24
35207 H 2.26731620062516 39.173019282588484 25.265097243270585 H 0.0 **** 0.06
35208 H 1.4470033344313862 38.88999413919046 23.711293130207874 H 0.0 **** 0.06
35209 H 0.6698084615861575 38.38985095888822 25.233537792626457 H 0.0 **** 0.06
35210 H 2.1012348546477995 37.51656514508636 24.636977627755535 H 0.0 **** 0.06
35211 C 25.049966244313026 81.90410703276021 43.79271388163835 C 0.0 **** -0.24
35212 H 25.12649936154827 82.9345917716897 44.13916482543622 H 0.0 **** 0.06
35213 H 25.894660392884447 81.67599672108838 43.14305101327739 H 0.0 **** 0.06
35214 H 24.119930717138175 81.77540223566842 43.23853844581539 H 0.0 **** 0.06
35215 H 25.058117553698196 81.23127448416685 44.65103281165678 H 0.0 **** 0.06
35216 C 98.36166832955959 15.834056272969825 67.81200336490627 C 0.0 **** -0.24
35217 H 99.17980909738324 16.519722154053387 67.58945129152102 H 0.0 **** 0.06
35218 H 97.80973355937175 16.195541793444015 68.67950126328265 H 0.0 **** 0.06
35219 H 98.76548742272792 14.844649465756781 68.0240921098113 H 0.0 **** 0.06
35220 H 97.69272241962443 15.777454961788475 66.95261747069188 H 0.0 **** 0.06
35221 C 78.51002932773815 97.86787608603603 41.11298840651703 C 0.0 **** -0.24
35222 H 78.4233888032594 98.18422253345693 42.152147536039855 H 0.0 **** 0.06
35223 H 77.5135880193875 97.73587902376445 40.68985609203105 H 0.0 **** 0.06
35224 H 79.05440602197325 96.9254051341712 41.06341169856435 H 0.0 **** 0.06
35225 H 79.04824800640978 98.62818022047551 40.5465445037091 H 0.0 **** 0.06
35226 C 61.77824606778347 98.12751076891811 74.12890969893007 C 0.0 **** -0.24
35227 H 62.16592035561712 99.1467797978159 74.12595237358127 H 0.0 **** 0.06
35228 H 61.07943458973753 98.00288926856157 73.30159270894347 H 0.0 **** 0.06
35229 H 61.265254074716694 97.93719590898661 75.07083951283246 H 0.0 **** 0.06
35230 H 62.604353485536905 97.42537750220225 74.01675447024951 H 0.0 **** 0.06
35231 C 34.806025147039804 13.301217037619466 104.95162353959364 C 0.0 **** -0.24
35232 H 35.75382645796611 12.99949008397411 105.39755057024917 H 0.0 **** 0.06
35233 H 34.059448418470424 13.427902753323025 105.7363269032432 H 0.0 **** 0.06
35234 H 34.4732382426717 12.533354223743032 104.25256415837038 H 0.0 **** 0.06
35235 H 34.93845593020427 14.243848336021287 104.42046657665679 H 0.0 **** 0.06
35236 C 22.689814955288313 4.586521160213364 71.37777288415487 C 0.0 **** -0.24
35237 H 23.57755890332851 5.033838935067688 71.82691204205204 H 0.0 **** 0.06
35238 H 21.85810207001748 5.289503270736457 71.43943576532953 H 0.0 **** 0.06
35239 H 22.434121773326922 3.672489066410657 71.91150369810197 H 0.0 **** 0.06
35240 H 22.891433244305574 4.353062972869104 70.33172995901424 H 0.0 **** 0.06
35241 C 81.89015778984214 23.78479903385204 21.9322194253632 C 0.0 **** -0.24
35242 H 81.65519760082418 23.21686527520734 21.03162496275722 H 0.0 **** 0.06
35243 H 82.53201663802406 24.627067423928167 21.674059466127034 H 0.0 **** 0.06
35244 H 82.40485580716762 23.139047963653667 22.643872367826873 H 0.0 **** 0.06
35245 H 80.96628475659895 24.154296009755967 22.378954335839666 H 0.0 **** 0.06
35246 C 36.46242135549038 39.56039918056058 82.44709182519816 C 0.0 **** -0.24
35247 H 35.63990468247379 38.8796020521483 82.228324895593 H 0.0 **** 0.06
35248 H 37.35433380662348 38.98475885134553 82.69435438859801 H 0.0 **** 0.06
35249 H 36.19314485346929 40.19539004754819 83.29076541154788 H 0.0 **** 0.06
35250 H 36.660559443874355 40.18257080523966 81.57372350926806 H 0.0 **** 0.06
35251 C 36.06347865149718 15.692097642788596 83.08340991966367 C 0.0 **** -0.24
35252 H 36.102452856736136 14.603200517780976 83.04457066819597 H 0.0 **** 0.06
35253 H 35.485431864556745 16.065645723872848 82.23828914619509 H 0.0 **** 0.06
35254 H 37.07674655706762 16.093249137916615 83.03665399335463 H 0.0 **** 0.06
35255 H 35.591392528116955 16.006291845788297 84.01486853215198 H 0.0 **** 0.06
35256 C 8.615793024183574 92.70175294478327 101.1792189014621 C 0.0 **** -0.24
35257 H 9.200898292214333 93.61094605565458 101.0411750735656 H 0.0 **** 0.06
35258 H 7.554723207304676 92.95201832281586 101.19344943594558 H 0.0 **** 0.06
35259 H 8.891192759082628 92.23226840606992 102.12413037946149 H 0.0 **** 0.06
35260 H 8.816039634456672 92.01192237384473 100.35949122855331 H 0.0 **** 0.06
35261 C 101.2072177275407 22.86098020607554 95.12333967493737 C 0.0 **** -0.24
35262 H 102.29498034125052 22.803045245520366 95.15346261634994 H 0.0 **** 0.06
35263 H 100.8280711330523 23.093097822032703 96.11961563104913 H 0.0 **** 0.06
35264 H 100.80132511242965 21.90362547470572 94.79442240536977 H 0.0 **** 0.06
35265 H 100.90320826416922 23.64262149468891 94.42685955847324 H 0.0 **** 0.06
35266 C 86.28395432790273 106.55741067516115 67.46368745208932 C 0.0 **** -0.24
35267 H 87.22347615131719 106.01219919147181 67.36925962349636 H 0.0 **** 0.06
35268 H 85.9260420339607 106.83826039003438 66.47221646189064 H 0.0 **** 0.06
35269 H 86.44425161669051 107.45581406619263 68.06002002275227 H 0.0 **** 0.06
35270 H 85.54356564401576 105.92413294936324 67.9518004232632 H 0.0 **** 0.06
35271 C 92.12030886877224 2.107133995567642 20.561588273163437 C 0.0 **** -0.24
35272 H 92.87615020064538 1.4186293905409286 20.939739952638348 H 0.0 **** 0.06
35273 H 92.58098026563874 3.0725418471349464 20.350119641959566 H 0.0 **** 0.06
35274 H 91.33817877393079 2.234880338864512 21.310776397612017 H 0.0 **** 0.06
35275 H 91.68521117678583 1.7036967296128775 19.64772192040499 H 0.0 **** 0.06
35276 C 60.33695160293371 30.682275967413318 13.837256905656034 C 0.0 **** -0.24
35277 H 59.85870137965992 30.400313954242677 12.899131888282284 H 0.0 **** 0.06
35278 H 60.67173666792914 29.784865057682282 14.358372112981272 H 0.0 **** 0.06
35279 H 59.62335844972537 31.221051360282274 14.461740176206774 H 0.0 **** 0.06
35280 H 61.19359599094582 31.32350529845138 13.63043884699215 H 0.0 **** 0.06
35281 C 13.662752379287596 90.23388365612206 63.34014895026115 C 0.0 **** -0.24
35282 H 14.5740267073557 89.98224613175901 62.798279959478634 H 0.0 **** 0.06
35283 H 13.673256973581488 91.29366119219597 63.59744779048782 H 0.0 **** 0.06
35284 H 13.607316003407632 89.63914379876002 64.25205668400025 H 0.0 **** 0.06
35285 H 12.796804888002157 90.02047641814065 62.71373002802619 H 0.0 **** 0.06
35286 C 105.33314874178654 13.512695553394195 8.6062912178907 C 0.0 **** -0.24
35287 H 104.7775069912461 12.616892304977327 8.885309548411769 H 0.0 **** 0.06
35288 H 105.23963511937706 14.2590610229107 9.395576474513916 H 0.0 **** 0.06
35289 H 104.93176872540235 13.91419361384068 7.675371336327899 H 0.0 **** 0.06
35290 H 106.38490217058956 13.259425359753592 8.468678028656583 H 0.0 **** 0.06
35291 C 43.54032381726287 37.21259125905157 7.7317750154697364 C 0.0 **** -0.24
35292 H 43.05353771808507 36.36752936582102 8.218629286072314 H 0.0 **** 0.06
35293 H 44.22875707583975 36.84528031281353 6.970378447193696 H 0.0 **** 0.06
35294 H 44.09162751208913 37.7903421008645 8.473020951770422 H 0.0 **** 0.06
35295 H 42.78601704308352 37.846842725017105 7.265227263954557 H 0.0 **** 0.06
35296 C 37.17998394315771 82.65270140959899 22.143357060194518 C 0.0 **** -0.24
35297 H 37.99430414165306 82.29411849115738 21.512807805919778 H 0.0 **** 0.06
35298 H 36.61918784019622 81.80147702592632 22.530666012954157 H 0.0 **** 0.06
35299 H 36.51783131138569 83.28725824940554 21.554161075863476 H 0.0 **** 0.06
35300 H 37.58992453209589 83.22732692489265 22.97409386301311 H 0.0 **** 0.06
35301 C 56.76971112257172 103.66789898529993 77.30631329764003 C 0.0 **** -0.24
35302 H 56.4067105093165 103.46063715709784 76.29936021438039 H 0.0 **** 0.06
35303 H 57.81825177230604 103.96437088624398 77.25987639230198 H 0.0 **** 0.06
35304 H 56.67215124262867 102.77148188566318 77.91853125808291 H 0.0 **** 0.06
35305 H 56.182065531666694 104.47332603223367 77.7461738301622 H 0.0 **** 0.06
35306 C 57.49044812827938 11.456587061497373 20.958398311712017 C 0.0 **** -0.24
35307 H 57.345159321896006 10.464954713114992 20.531608255030136 H 0.0 **** 0.06
35308 H 56.66191924811494 11.689603008136459 21.628398267824792 H 0.0 **** 0.06
35309 H 57.529093890462235 12.194584778684941 20.15787648195311 H 0.0 **** 0.06
35310 H 58.42661623963707 11.477707093223529 21.51764842317428 H 0.0 **** 0.06
35311 C 109.23291379701891 0.9976094504393842 108.65004258397772 C 0.0 **** -0.24
35312 H 108.37438276683508 0.7734614049384874 109.28275064242996 H 0.0 **** 0.06
35313 H 109.43423193393 0.14772049986751767 107.99792590055085 H 0.0 **** 0.06
35314 H 110.10361888150095 1.1913112025819146 109.27607824309055 H 0.0 **** 0.06
35315 H 109.01721622268218 1.8781729236665115 108.04445696089697 H 0.0 **** 0.06
35316 C 81.27066508852755 74.3848218574982 11.859144983653422 C 0.0 **** -0.24
35317 H 80.76686365376145 74.4954535231538 12.819193481646579 H 0.0 **** 0.06
35318 H 82.2959483627582 74.05268869432757 12.023811887805053 H 0.0 **** 0.06
35319 H 81.27811141412798 75.34453527409272 11.34084758573988 H 0.0 **** 0.06
35320 H 80.74199236267609 73.64951698866469 11.2534229105879 H 0.0 **** 0.06
35321 C 99.9606148943692 35.812513648268755 42.03058705888918 C 0.0 **** -0.24
35322 H 100.49411809676462 36.31479665000536 41.2235861218295 H 0.0 **** 0.06
35323 H 98.95876190598034 35.54765903423231 41.69360193478809 H 0.0 **** 0.06
35324 H 99.89043774461868 36.48015219160535 42.88952556194499 H 0.0 **** 0.06
35325 H 100.5004176445982 34.90943540973416 42.31498828900118 H 0.0 **** 0.06
35326 C 44.45569581946427 107.2732595220811 68.79877355589335 C 0.0 **** -0.24
35327 H 44.799217916672205 106.26251050806695 69.01706542934733 H 0.0 **** 0.06
35328 H 43.57322472087637 107.22709414253359 68.16028555039267 H 0.0 **** 0.06
35329 H 45.245534336425436 107.82344308324784 68.28757736794694 H 0.0 **** 0.06
35330 H 44.204357561170724 107.78061830058115 69.73080177712941 H 0.0 **** 0.06
35331 C 57.56618974077239 24.89696260057127 39.391672532172436 C 0.0 **** -0.24
35332 H 57.445869742081044 24.33207331033185 40.31547148962919 H 0.0 **** 0.06
35333 H 58.012267735115444 24.256658658995065 38.629332194465405 H 0.0 **** 0.06
35334 H 58.21566833961677 25.75434283404593 39.572208275987904 H 0.0 **** 0.06
35335 H 56.59156538080995 25.24590821990202 39.04909297460816 H 0.0 **** 0.06
35336 C 51.576862784223295 64.69108782997978 2.5046019614774764 C 0.0 **** -0.24
35337 H 51.14697469574287 64.32686832007937 3.4380203056587533 H 0.0 **** 0.06
35338 H 51.86151750618063 65.7372940772791 2.6189417975132585 H 0.0 **** 0.06
35339 H 50.84037064509789 64.60015092361354 1.705993660521841 H 0.0 **** 0.06
35340 H 52.45763250753828 64.09901531330055 2.2552503208561347 H 0.0 **** 0.06
35341 C 99.46408556128111 71.5769225615634 69.09485000435666 C 0.0 **** -0.24
35342 H 99.46210382647132 72.45626842297389 68.45037087588673 H 0.0 **** 0.06
35343 H 98.67851291354049 70.89156248709793 68.77571271954378 H 0.0 **** 0.06
35344 H 99.28524218383714 71.88126291673399 70.1258365961387 H 0.0 **** 0.06
35345 H 100.43172426195994 71.07808859217104 69.02498931758316 H 0.0 **** 0.06
35346 C 78.97966036984192 58.83802602354979 17.74769852202712 C 0.0 **** -0.24
35347 H 78.6887060826536 57.94371390939787 17.19718712212523 H 0.0 **** 0.06
35348 H 78.94560031957457 58.63237670068585 18.817999745697307 H 0.0 **** 0.06
35349 H 78.29201595216901 59.65078440131202 17.511263681768526 H 0.0 **** 0.06
35350 H 79.99256289127553 59.12427458289093 17.464515482199204 H 0.0 **** 0.06
35351 C 43.71858561833987 23.259005770448454 110.4798816697061 C 0.0 **** -0.24
35352 H 44.13162355169298 23.664045928734208 111.40377047937525 H 0.0 **** 0.06
35353 H 42.64655306568062 23.101744531031837 110.59987964597941 H 0.0 **** 0.06
35354 H 44.20289889425689 22.309253835558234 110.25233537209041 H 0.0 **** 0.06
35355 H 43.894760371602715 23.96105879427787 109.66520359207394 H 0.0 **** 0.06
35356 C 86.57538841553492 16.78784258151822 52.9951145120863 C 0.0 **** -0.24
35357 H 87.24057230975822 17.486091531225497 52.486234142452076 H 0.0 **** 0.06
35358 H 86.99952810157978 16.5250381616616 53.964675136655046 H 0.0 **** 0.06
35359 H 86.46225664098279 15.88770670711682 52.39079588176443 H 0.0 **** 0.06
35360 H 85.6008844682799 17.253896499144588 53.139890810481404 H 0.0 **** 0.06
35361 C 18.393235638945246 71.12735262017245 66.81513096353706 C 0.0 **** -0.24
35362 H 18.236570812523574 70.05998648981424 66.96952668918016 H 0.0 **** 0.06
35363 H 18.19036113766456 71.66243836737891 67.74334086610398 H 0.0 **** 0.06
35364 H 17.720454357334862 71.484880802345 66.03512110483825 H 0.0 **** 0.06
35365 H 19.42588806900357 71.30302269492276 66.51275304594066 H 0.0 **** 0.06
35366 C 22.088407529910228 2.6472509398032003 89.27483370169236 C 0.0 **** -0.24
35367 H 22.41694964643193 3.493971173565484 89.87736279024728 H 0.0 **** 0.06
35368 H 21.006932726723562 2.5371641990464013 89.36255270170176 H 0.0 **** 0.06
35369 H 22.576123060731135 1.739219422274914 89.62769152781948 H 0.0 **** 0.06
35370 H 22.352183994807433 2.8203547104667166 88.23185076389845 H 0.0 **** 0.06
35371 C 42.902270070307736 94.3589937387724 20.559944033685326 C 0.0 **** -0.24
35372 H 43.83084681099973 94.26823896198601 19.996268414571148 H 0.0 **** 0.06
35373 H 42.30667269195965 93.45557920980266 20.42615920424589 H 0.0 **** 0.06
35374 H 42.341003811606726 95.22059507836298 20.198938929274334 H 0.0 **** 0.06
35375 H 43.13125399439281 94.49142579108283 21.61682976072882 H 0.0 **** 0.06
35376 C 37.84583286821665 64.87193687380062 64.74858282160989 C 0.0 **** -0.24
35377 H 38.523552280028106 64.2385937566392 64.17677057580855 H 0.0 **** 0.06
35378 H 37.1583112651661 65.37666034395636 64.068778631643 H 0.0 **** 0.06
35379 H 38.422023044566735 65.61491571618114 65.3006052363686 H 0.0 **** 0.06
35380 H 37.279048359924644 64.2587002883775 65.44943489128059 H 0.0 **** 0.06
35381 C 58.64339345373247 101.82976545928148 86.30891101026256 C 0.0 **** -0.24
35382 H 57.82975744372217 102.28898585443278 86.87143614813206 H 0.0 **** 0.06
35383 H 58.25728889488721 100.98538848378294 85.73760881223299 H 0.0 **** 0.06
35384 H 59.41020733950711 101.48071866739556 87.00035455940821 H 0.0 **** 0.06
35385 H 59.07458398514083 102.56329408489165 85.62837312367154 H 0.0 **** 0.06
35386 C 80.67912818105575 107.85866736442415 72.13900361514118 C 0.0 **** -0.24
35387 H 79.70918944576223 108.28683130255325 72.39373274979673 H 0.0 **** 0.06
35388 H 81.06659017049455 108.34715136404742 71.24422484327275 H 0.0 **** 0.06
35389 H 80.56663159615442 106.79112032364009 71.94951949902423 H 0.0 **** 0.06
35390 H 81.37193671919917 108.01084017676129 72.96595046395859 H 0.0 **** 0.06
35391 C 62.34774686490644 45.07441357649754 29.82563699192488 C 0.0 **** -0.24
35392 H 62.62155126754993 45.25351093829146 28.785694831165188 H 0.0 **** 0.06
35393 H 62.862429374979996 45.792558148446986 30.46483941689965 H 0.0 **** 0.06
35394 H 62.63770981076797 44.06298901016547 30.108449944528303 H 0.0 **** 0.06
35395 H 61.270314644117974 45.19036962215195 29.942214790388988 H 0.0 **** 0.06
35396 C 30.54536532628009 22.29744847926564 92.13906402129874 C 0.0 **** -0.24
35397 H 30.124415470521114 22.14941577054941 91.14470497539571 H 0.0 **** 0.06
35398 H 30.98701863547734 23.29173368778865 92.20167902533882 H 0.0 **** 0.06
35399 H 31.312633503499512 21.545820111314754 92.32409839105722 H 0.0 **** 0.06
35400 H 29.756467374073736 22.20204685538411 92.88504051676335 H 0.0 **** 0.06
35401 C 58.69203382099275 32.76660506887376 98.15067215040153 C 0.0 **** -0.24
35402 H 59.36281405784521 33.59604324854689 98.37736277154255 H 0.0 **** 0.06
35403 H 59.269853538877754 31.92562433844998 97.76930213676053 H 0.0 **** 0.06
35404 H 57.96763651176144 33.08160955883264 97.39839680107826 H 0.0 **** 0.06
35405 H 58.16754806098905 32.46595504349435 99.05751095866546 H 0.0 **** 0.06
35406 C 13.67845575672547 62.72451311441844 26.236408379208854 C 0.0 **** -0.24
35407 H 13.739688466993442 63.38405303128991 25.37083167251413 H 0.0 **** 0.06
35408 H 13.50372166080065 61.701363565906234 25.902666827174215 H 0.0 **** 0.06
35409 H 12.85657402647115 63.0427320002247 26.87908453976985 H 0.0 **** 0.06
35410 H 14.613631580405695 62.770107021806325 26.79400745806555 H 0.0 **** 0.06
35411 C 5.421257351276481 87.97090101543287 82.61085414496978 C 0.0 **** -0.24
35412 H 5.674761870453125 88.58073986685292 83.47706678192827 H 0.0 **** 0.06
35413 H 5.697145849443302 88.5020351388379 81.69983577347506 H 0.0 **** 0.06
35414 H 4.348899972966763 87.7743494947778 82.60579733653847 H 0.0 **** 0.06
35415 H 5.963590677046113 87.0267055178513 82.65997453234357 H 0.0 **** 0.06
35416 C 61.86785426184579 104.7124758332273 93.02243658736663 C 0.0 **** -0.24
35417 H 61.97887123228966 104.31102145323428 92.01560693376916 H 0.0 **** 0.06
35418 H 61.803541856211865 105.80027304861358 92.97521782832081 H 0.0 **** 0.06
35419 H 62.72879781737754 104.42526267375956 93.62538446007991 H 0.0 **** 0.06
35420 H 60.95919289965872 104.31427789234098 93.47458849828246 H 0.0 **** 0.06
35421 C 54.93064868657507 71.94580827473828 57.460188591416504 C 0.0 **** -0.24
35422 H 54.55558925911677 72.8878979165957 57.05999371788988 H 0.0 **** 0.06
35423 H 54.126990207356414 71.42849777672609 57.98460379811595 H 0.0 **** 0.06
35424 H 55.7480414824488 72.14511448832036 58.15299334375428 H 0.0 **** 0.06
35425 H 55.2912963484965 71.32164864257282 56.641924288522326 H 0.0 **** 0.06
35426 C 70.92327914685077 30.778286951469326 31.335290265499864 C 0.0 **** -0.24
35427 H 71.16653812784145 31.839934602892995 31.28558354224441 H 0.0 **** 0.06
35428 H 71.79706371777499 30.221510099507015 31.675878770487657 H 0.0 **** 0.06
35429 H 70.6298611881875 30.427118064883686 30.346072546009736 H 0.0 **** 0.06
35430 H 70.099955395982 30.626289596443144 32.03368573379049 H 0.0 **** 0.06
35431 C 49.97259238015232 25.327016655313827 104.83811611078809 C 0.0 **** -0.24
35432 H 49.58603891475991 24.3776310690684 105.20640501881775 H 0.0 **** 0.06
35433 H 50.405966958979604 25.88869263591181 105.66573556752309 H 0.0 **** 0.06
35434 H 49.1600026254207 25.90236102933642 104.39392903179086 H 0.0 **** 0.06
35435 H 50.73932185710794 25.14058225769847 104.08511571135486 H 0.0 **** 0.06
35436 C 102.76067228593249 112.04318275033548 80.42290956219426 C 0.0 **** -0.24
35437 H 103.18383898244684 111.50182188065473 79.57757373080011 H 0.0 **** 0.06
35438 H 103.56052136987367 112.5393392945828 80.97402806546589 H 0.0 **** 0.06
35439 H 102.24551426086913 111.34380095264433 81.08104759889335 H 0.0 **** 0.06
35440 H 102.05261136286862 112.78842345717676 80.06022592940457 H 0.0 **** 0.06
35441 C 43.96065254075491 5.323415113546204 16.15026471215549 C 0.0 **** -0.24
35442 H 44.194682292981696 5.065546851602917 15.11779467554851 H 0.0 **** 0.06
35443 H 44.8858231840922 5.508054083258486 16.696887216676828 H 0.0 **** 0.06
35444 H 43.421551275182935 4.498986950745248 16.616575123756007 H 0.0 **** 0.06
35445 H 43.341130611826685 6.2198397443285245 16.170185364579595 H 0.0 **** 0.06
35446 C 60.53052584911171 74.91442142984215 9.01140244409578 C 0.0 **** -0.24
35447 H 60.63320610749409 75.7923477875359 8.37304634906053 H 0.0 **** 0.06
35448 H 60.74447780359736 74.01666647035074 8.432780896718953 H 0.0 **** 0.06
35449 H 59.512874158396755 74.86357162337231 9.398411121152208 H 0.0 **** 0.06
35450 H 61.231420051476334 74.98730543781238 9.843634196060862 H 0.0 **** 0.06
35451 C 75.62110005775929 74.68944589331943 20.208482777046925 C 0.0 **** -0.24
35452 H 75.67124008088982 74.06228255365704 21.09864766123667 H 0.0 **** 0.06
35453 H 74.59062654800775 74.73317648646957 19.853703326165316 H 0.0 **** 0.06
35454 H 76.25608891880785 74.26665904662661 19.43004022382877 H 0.0 **** 0.06
35455 H 75.96450334741328 75.69426691566048 20.452064830030082 H 0.0 **** 0.06
35456 C 83.40618637882102 24.974508662312985 16.008125152877668 C 0.0 **** -0.24
35457 H 83.12393736523865 24.190579801703805 15.305401578922755 H 0.0 **** 0.06
35458 H 83.61317466796078 25.895024329439593 15.461787183207747 H 0.0 **** 0.06
35459 H 84.29900578699358 24.66837634167456 16.554850851872956 H 0.0 **** 0.06
35460 H 82.59036176644253 25.142710956065983 16.71089578390209 H 0.0 **** 0.06
35461 C 44.924706567518236 71.93559948168132 37.09687102805856 C 0.0 **** -0.24
35462 H 44.27996952844257 71.91627823677277 37.97562141278337 H 0.0 **** 0.06
35463 H 45.90915957429514 72.30873121049765 37.377483437402816 H 0.0 **** 0.06
35464 H 44.488553526645205 72.59035818203051 36.34142477184913 H 0.0 **** 0.06
35465 H 45.0180404949744 70.92759517380952 36.6931824563686 H 0.0 **** 0.06
35466 C 109.00742546260642 26.00668912213922 5.054598612150931 C 0.0 **** -0.24
35467 H 108.11938711600305 25.40550095670064 4.861207720979394 H 0.0 **** 0.06
35468 H 109.32779201336527 26.488646264896985 4.131441030446357 H 0.0 **** 0.06
35469 H 109.80576947679818 25.363724952715454 5.426326131851953 H 0.0 **** 0.06
35470 H 108.77584687387383 26.76643039700629 5.800495314695253 H 0.0 **** 0.06
35471 C 9.434163786397644 13.127691589689547 110.31186071514387 C 0.0 **** -0.24
35472 H 9.900505379760446 12.182364785381424 110.59066384168568 H 0.0 **** 0.06
35473 H 8.453169120105237 13.200785647814982 110.78200234110929 H 0.0 **** 0.06
35474 H 9.322855644648243 13.172171931201845 109.2281160819112 H 0.0 **** 0.06
35475 H 10.060617696164673 13.954130639181102 110.64648042047816 H 0.0 **** 0.06
35476 C 43.51899622618785 22.216966623330535 7.213540962025945 C 0.0 **** -0.24
35477 H 43.43625507886597 21.130752553847145 7.171716237614291 H 0.0 **** 0.06
35478 H 43.10374790067115 22.576613381698564 8.155333117306014 H 0.0 **** 0.06
35479 H 42.967560126014604 22.65478750608031 6.382158723067889 H 0.0 **** 0.06
35480 H 44.56817938711657 22.503557974710702 7.145500896877309 H 0.0 **** 0.06
35481 C 83.67665799534527 110.18887623310205 51.37019323945009 C 0.0 **** -0.24
35482 H 84.09280673892607 110.1284301271279 52.37618922564414 H 0.0 **** 0.06
35483 H 82.58938113100936 110.132827524306 51.42269990899658 H 0.0 **** 0.06
35484 H 84.05528077774184 109.3614150734202 50.77042479356791 H 0.0 **** 0.06
35485 H 83.97119382404026 111.1336213865235 50.912579139358314 H 0.0 **** 0.06
35486 C 97.66460457710528 41.11290463578766 23.577471100605717 C 0.0 **** -0.24
35487 H 97.36805141949708 40.31176652500574 22.900440566736425 H 0.0 **** 0.06
35488 H 97.17687684955231 40.9720565411134 24.542076653214913 H 0.0 **** 0.06
35489 H 97.36821851379395 42.07360587214416 23.155884988777753 H 0.0 **** 0.06
35490 H 98.74679480564257 41.09228290471674 23.711693031653216 H 0.0 **** 0.06
35491 C 73.56535703122702 72.02342429801402 90.39970309054004 C 0.0 **** -0.24
35492 H 74.0612300987527 71.27427847944281 91.01845258630414 H 0.0 **** 0.06
35493 H 74.06586560370206 72.08579081599922 89.43387188042479 H 0.0 **** 0.06
35494 H 73.612318791891 72.99323665142825 90.89691942934277 H 0.0 **** 0.06
35495 H 72.52254250032485 71.7406536477925 90.25283221632509 H 0.0 **** 0.06
35496 C 8.083924134742517 22.264700960505365 46.887723823076094 C 0.0 **** -0.24
35497 H 8.355902366548463 23.26619256574122 46.55440146643596 H 0.0 **** 0.06
35498 H 7.003405819534578 22.208138386715916 47.02555461424712 H 0.0 **** 0.06
35499 H 8.582862866919811 22.047740645883692 47.83255702963719 H 0.0 **** 0.06
35500 H 8.392483747625704 21.53585941221749 46.137990953261614 H 0.0 **** 0.06
35501 C 16.486852737659945 38.4199190500066 84.40545919475517 C 0.0 **** -0.24
35502 H 16.253350931571504 39.27563456624026 85.03867655930449 H 0.0 **** 0.06
35503 H 16.459626423830798 38.72515162050507 83.35903803623998 H 0.0 **** 0.06
35504 H 15.751436021718519 37.63343834725163 84.5735297794177 H 0.0 **** 0.06
35505 H 17.48093156708518 38.04676538144773 84.6505142404055 H 0.0 **** 0.06
35506 C 17.63560751475991 9.51906780158646 25.433727151478877 C 0.0 **** -0.24
35507 H 17.057213846317723 8.652537335305908 25.113652017491347 H 0.0 **** 0.06
35508 H 17.445643097006908 9.71269551686514 26.489524114886763 H 0.0 **** 0.06
35509 H 17.340716929720585 10.389430454304062 24.846438586225332 H 0.0 **** 0.06
35510 H 18.696827378458835 9.322463419095513 25.28490361758699 H 0.0 **** 0.06
35511 C 110.09817153561785 78.29650063840793 64.52627409083931 C 0.0 **** -0.24
35512 H 111.18154809803144 78.30292701673551 64.40558719334689 H 0.0 **** 0.06
35513 H 109.761629673127 77.27914713033266 64.72648602438045 H 0.0 **** 0.06
35514 H 109.62929577215861 78.66150881243735 63.612579978867814 H 0.0 **** 0.06
35515 H 109.82170681148635 78.94215975402847 65.35960651701367 H 0.0 **** 0.06
35516 C 108.76431747760587 45.51183112016963 59.1603776760841 C 0.0 **** -0.24
35517 H 109.050257096472 46.346329137384316 59.80064557524788 H 0.0 **** 0.06
35518 H 107.98690324632861 45.835168487622724 58.467262592526374 H 0.0 **** 0.06
35519 H 108.38578797267141 44.694749438984516 59.77578438440715 H 0.0 **** 0.06
35520 H 109.63432159495146 45.17107741668704 58.59781815215502 H 0.0 **** 0.06
35521 C 14.92285166188222 41.84002172075211 35.25966963835356 C 0.0 **** -0.24
35522 H 15.332686455587634 40.903264246234 34.881287164263256 H 0.0 **** 0.06
35523 H 15.54954555112937 42.20796603369454 36.07174421164035 H 0.0 **** 0.06
35524 H 13.910558677305573 41.67068284602095 35.628566273888055 H 0.0 **** 0.06
35525 H 14.898239124875374 42.576117347689866 34.45628752050476 H 0.0 **** 0.06
35526 C 19.899016728636695 98.57199520145704 9.222713935490717 C 0.0 **** -0.24
35527 H 20.531239113117635 99.07283289498861 8.489432366714425 H 0.0 **** 0.06
35528 H 18.870546482264615 98.9174200083009 9.112695275293746 H 0.0 **** 0.06
35529 H 20.255080644630198 98.80299246201807 10.226694086632975 H 0.0 **** 0.06
35530 H 19.93950578463017 97.49437665690749 9.060700485820618 H 0.0 **** 0.06
35531 C 27.11724193169522 20.518043091980616 63.276754652017416 C 0.0 **** -0.24
35532 H 28.11615352379107 20.953187180748472 63.28491516941773 H 0.0 **** 0.06
35533 H 27.086699595781795 19.66703568517127 63.95790221755152 H 0.0 **** 0.06
35534 H 26.874348720782592 20.185344006320236 62.267436756829284 H 0.0 **** 0.06
35535 H 26.39303539653571 21.26628053587828 63.59729630884726 H 0.0 **** 0.06
35536 C 42.64326412687103 42.958099896671825 63.34310102046661 C 0.0 **** -0.24
35537 H 42.95373976527938 42.91482917878079 64.38753243011607 H 0.0 **** 0.06
35538 H 43.38327886573876 43.51550884606516 62.76754049034211 H 0.0 **** 0.06
35539 H 41.67657833285503 43.456866941240406 63.27281300165091 H 0.0 **** 0.06
35540 H 42.56058419902308 41.945804926226685 62.947410087225755 H 0.0 **** 0.06
35541 C 74.36712946193418 41.75225019640527 53.891158297191055 C 0.0 **** -0.24
35542 H 73.64735214137244 42.11258245137799 54.62651786696662 H 0.0 **** 0.06
35543 H 74.22290924842346 42.28438095245809 52.95022161096267 H 0.0 **** 0.06
35544 H 74.21961986426692 40.68487189770593 53.73127774326596 H 0.0 **** 0.06
35545 H 75.37891312481503 41.928530628638725 54.256860966157774 H 0.0 **** 0.06
35546 C 74.48061162045855 90.30893686115269 16.82864139359839 C 0.0 **** -0.24
35547 H 75.33008796833707 90.9845335566788 16.722036970629404 H 0.0 **** 0.06
35548 H 74.27113135477822 89.83619516107706 15.86817598937148 H 0.0 **** 0.06
35549 H 73.60778053053758 90.87244311924564 17.15546683123233 H 0.0 **** 0.06
35550 H 74.71700348425492 89.54213195374052 17.56640525421099 H 0.0 **** 0.06
35551 C 91.1270291898187 97.01208230057006 1.666164404656783 C 0.0 **** -0.24
35552 H 90.48614265860175 96.52760950592418 2.4018952510281224 H 0.0 **** 0.06
35553 H 92.15291434227441 97.03526546290664 2.0356284257385653 H 0.0 **** 0.06
35554 H 90.77876967251487 98.03102525190778 1.4963439838829515 H 0.0 **** 0.06
35555 H 91.09051221883539 96.45495467538467 0.7294959655577031 H 0.0 **** 0.06
35556 C 24.83070918652919 101.43639052481774 84.51575931228692 C 0.0 **** -0.24
35557 H 24.270001558718036 100.88223146023819 83.76420893108994 H 0.0 **** 0.06
35558 H 24.24559509399444 102.29599362505752 84.8451777306179 H 0.0 **** 0.06
35559 H 25.77187103457061 101.77937811421106 84.08633380804301 H 0.0 **** 0.06
35560 H 25.034302086188745 100.78755166412353 85.3681509508159 H 0.0 **** 0.06
35561 C 93.84942887393888 84.60201951739697 26.257522269043704 C 0.0 **** -0.24
35562 H 94.18462988121166 85.60144026621566 25.978913435362443 H 0.0 **** 0.06
35563 H 92.89875813616175 84.38781388763624 25.767287026280172 H 0.0 **** 0.06
35564 H 93.72003239707553 84.55126402180917 27.338566585430613 H 0.0 **** 0.06
35565 H 94.59250118835655 83.86918811488584 25.94568422370864 H 0.0 **** 0.06
35566 C 25.2489688282828 43.219523807638865 50.46315185091184 C 0.0 **** -0.24
35567 H 24.474638172453112 42.74139238241523 49.86247988010122 H 0.0 **** 0.06
35568 H 26.161772718920275 43.30743579584771 49.87420625757915 H 0.0 **** 0.06
35569 H 25.444016866300046 42.617159672023064 51.35054303561956 H 0.0 **** 0.06
35570 H 24.91274183428723 44.21127510406782 50.76364993256348 H 0.0 **** 0.06
35571 C 26.658562443566446 86.4317214077308 9.138356392322095 C 0.0 **** -0.24
35572 H 27.63378410484919 86.07552456069655 8.808097637793338 H 0.0 **** 0.06
35573 H 25.980615297547246 85.58485696722795 9.246729363730736 H 0.0 **** 0.06
35574 H 26.257203307802968 87.12695348437805 8.401600296397532 H 0.0 **** 0.06
35575 H 26.763317511364647 86.93782035477048 10.098597342275696 H 0.0 **** 0.06
35576 C 53.876606873773945 22.586191087575457 74.09753416538047 C 0.0 **** -0.24
35577 H 53.19139786481478 22.84953921706574 73.29069597488535 H 0.0 **** 0.06
35578 H 54.904404766250565 22.710045733113674 73.75682770676622 H 0.0 **** 0.06
35579 H 53.71164952893126 21.548689861259135 74.38827231574965 H 0.0 **** 0.06
35580 H 53.69581665432596 23.236879595798626 74.95340727496293 H 0.0 **** 0.06
35581 C 91.2144880488562 45.58097262917934 83.44039912710028 C 0.0 **** -0.24
35582 H 90.5768808973526 45.02048348277364 84.12425469724727 H 0.0 **** 0.06
35583 H 91.61715020181407 44.90559396104544 82.68408215723883 H 0.0 **** 0.06
35584 H 92.0348656500598 46.03425662357935 83.99625753116734 H 0.0 **** 0.06
35585 H 90.62806689982094 46.36139413213215 82.95517245858295 H 0.0 **** 0.06
35586 C 43.414563887277836 105.287254849736 37.57793501078288 C 0.0 **** -0.24
35587 H 43.60515929841102 104.46879028325324 38.271600269768555 H 0.0 **** 0.06
35588 H 42.62959376324637 104.99680724581376 36.879878087951965 H 0.0 **** 0.06
35589 H 44.32615841048681 105.51545423104423 37.02601306489697 H 0.0 **** 0.06
35590 H 43.097441689739924 106.16915054302615 38.13614374400203 H 0.0 **** 0.06
35591 C 25.53814132608167 10.51971162888691 66.66076173466288 C 0.0 **** -0.24
35592 H 25.25878150255653 10.562193685151243 65.60789955540591 H 0.0 **** 0.06
35593 H 24.923993506155398 11.219060248995817 67.2286969360969 H 0.0 **** 0.06
35594 H 26.588864313206813 10.788334242579595 66.76704649253767 H 0.0 **** 0.06
35595 H 25.38135964358071 9.508406607860678 67.03738237701475 H 0.0 **** 0.06
35596 C 22.208143207611386 53.60182257220954 43.911114768294254 C 0.0 **** -0.24
35597 H 23.117338336695582 53.05939096864478 44.16841712734913 H 0.0 **** 0.06
35598 H 21.88606238272206 54.196383824598506 44.76582011500372 H 0.0 **** 0.06
35599 H 21.424080302687287 52.892603691010095 43.64455263854066 H 0.0 **** 0.06
35600 H 22.40638225945048 54.26018008960328 43.0648168919021 H 0.0 **** 0.06
35601 C 36.22221756766061 56.58805667613967 34.13461939222867 C 0.0 **** -0.24
35602 H 35.86822379082213 56.512972938744724 33.10672679347732 H 0.0 **** 0.06
35603 H 36.668956776183734 57.569349826515236 34.294213300269575 H 0.0 **** 0.06
35604 H 36.967443763569236 55.8147763656695 34.3192970301526 H 0.0 **** 0.06
35605 H 35.38293503553848 56.45516031758905 34.81771075586488 H 0.0 **** 0.06
35606 C 67.95301017796561 62.981902985893704 30.40803510656771 C 0.0 **** -0.24
35607 H 67.21972710814742 63.45968861302702 29.758365789960898 H 0.0 **** 0.06
35608 H 68.56683890412287 62.297166785941194 29.822409757300576 H 0.0 **** 0.06
35609 H 67.4374549020734 62.427859430529374 31.192119192994312 H 0.0 **** 0.06
35610 H 68.58877441931818 63.743963941378006 30.859786554666172 H 0.0 **** 0.06
35611 C 52.9882846544298 94.82219865359556 2.382293980611621 C 0.0 **** -0.24
35612 H 53.018339009376845 94.07177779918865 1.5925474099682333 H 0.0 **** 0.06
35613 H 53.319276291670185 95.78124763314102 1.9846484805282216 H 0.0 **** 0.06
35614 H 53.64644207483016 94.51849645567685 3.197041940453005 H 0.0 **** 0.06
35615 H 51.96807667526464 94.91536264577547 2.756096874666639 H 0.0 **** 0.06
35616 C 90.35512721754526 101.55032507183284 5.096526611735499 C 0.0 **** -0.24
35617 H 91.1268625354275 102.31082182807489 4.976386329412804 H 0.0 **** 0.06
35618 H 90.31262693306365 100.93238002911613 4.199652018204773 H 0.0 **** 0.06
35619 H 89.39068869741999 102.03371195408926 5.2521056828928465 H 0.0 **** 0.06
35620 H 90.59235808144712 100.92645073581122 5.958755564548994 H 0.0 **** 0.06
35621 C 108.17658391689858 99.44524259765831 99.42762777559733 C 0.0 **** -0.24
35622 H 108.3857268242427 99.2102961385688 100.47126410891332 H 0.0 **** 0.06
35623 H 108.76062898412157 98.78834333278971 98.78269666997357 H 0.0 **** 0.06
35624 H 108.4437221470255 100.48290389151677 99.22841789351685 H 0.0 **** 0.06
35625 H 107.11390572993452 99.2993170091255 99.22880801539458 H 0.0 **** 0.06
35626 C 65.18177404498152 58.08312472928526 40.33491058481195 C 0.0 **** -0.24
35627 H 64.29502093694006 57.83758534803803 39.750519680458126 H 0.0 **** 0.06
35628 H 65.04790750706414 59.05641432723655 40.80655395980159 H 0.0 **** 0.06
35629 H 66.05171795953052 58.11155963075032 39.679363188257355 H 0.0 **** 0.06
35630 H 65.33104858739006 57.32377871903236 41.10299077530942 H 0.0 **** 0.06
35631 C 48.02462014128008 94.45321344865354 1.1883901264312229 C 0.0 **** -0.24
35632 H 47.95479993779293 95.27180860288317 0.47222849060679994 H 0.0 **** 0.06
35633 H 47.999546125548704 93.50195900237838 0.656236299186375 H 0.0 **** 0.06
35634 H 47.18587317642857 94.50368229179935 1.8823445823958682 H 0.0 **** 0.06
35635 H 48.960302877676895 94.53498011077397 1.7435590645237333 H 0.0 **** 0.06
35636 C 29.37277283794583 39.161946855196184 68.63456900316362 C 0.0 **** -0.24
35637 H 28.46445009784287 38.606364565541625 68.86831998951848 H 0.0 **** 0.06
35638 H 30.18456998453871 38.46239624185108 68.43275775670736 H 0.0 **** 0.06
35639 H 29.639607258632793 39.79419517024337 69.48082120661039 H 0.0 **** 0.06
35640 H 29.20153582927412 39.78405166105329 67.75564868323764 H 0.0 **** 0.06
35641 C 65.44868154727698 54.80860602056799 95.49813232770614 C 0.0 **** -0.24
35642 H 65.57397820729562 55.52222112673877 96.31179721830517 H 0.0 **** 0.06
35643 H 66.04156967629257 55.128011534623 94.64026447568665 H 0.0 **** 0.06
35644 H 64.3969401392564 54.75984238493197 95.21610306179599 H 0.0 **** 0.06
35645 H 65.78295463832694 53.823895888812615 95.82489500970246 H 0.0 **** 0.06
35646 C 96.01921152687999 28.274344812343628 80.62583688818674 C 0.0 **** -0.24
35647 H 96.88735311838633 28.69979084451026 81.12992148295493 H 0.0 **** 0.06
35648 H 95.33051483829198 29.074554438938435 80.35339816593353 H 0.0 **** 0.06
35649 H 95.51847028305721 27.5745522496741 81.29383156205935 H 0.0 **** 0.06
35650 H 96.34308541434879 27.751002327110143 79.72613707950228 H 0.0 **** 0.06
35651 C 36.5530228292765 26.32505863002112 95.11382707614428 C 0.0 **** -0.24
35652 H 37.2085333625208 25.77151385613226 95.78709343282173 H 0.0 **** 0.06
35653 H 35.54972804949304 25.900942829040787 95.15438275243798 H 0.0 **** 0.06
35654 H 36.93711331368908 26.256829972650195 94.09647429176096 H 0.0 **** 0.06
35655 H 36.517788674375524 27.370415847523674 95.42075905319211 H 0.0 **** 0.06
35656 C 10.398628782204426 28.006633867585435 15.349283691565262 C 0.0 **** -0.24
35657 H 9.841490241595451 28.916134335438926 15.124900255981174 H 0.0 **** 0.06
35658 H 10.785865031820407 28.059206498035962 16.36734491538678 H 0.0 **** 0.06
35659 H 11.22816363258167 27.90692159100888 14.649233132091467 H 0.0 **** 0.06
35660 H 9.738287491661055 27.14497050757808 15.25555014244945 H 0.0 **** 0.06
35661 C 54.014150686138485 53.79850481873632 85.07371687311132 C 0.0 **** -0.24
35662 H 54.4836891744092 52.99040631067001 85.63515060271897 H 0.0 **** 0.06
35663 H 53.16934929471626 53.40461834007928 84.50818661544957 H 0.0 **** 0.06
35664 H 54.74040625965634 54.23221984340762 84.3870732621445 H 0.0 **** 0.06
35665 H 53.66345218385352 54.56459430601171 85.7640579150181 H 0.0 **** 0.06
35666 C 8.337156417025994 96.6606973211754 33.30430221186191 C 0.0 **** -0.24
35667 H 8.098888019010033 97.63415609532447 33.732727895219455 H 0.0 **** 0.06
35668 H 7.940539801954273 96.60454274302413 32.29042878266466 H 0.0 **** 0.06
35669 H 7.889554702141254 95.8756163317282 33.914448083085176 H 0.0 **** 0.06
35670 H 9.419012710755766 96.52919754988011 33.27988560170138 H 0.0 **** 0.06
35671 C 88.07115529377276 31.43889033418401 76.60029437236201 C 0.0 **** -0.24
35672 H 87.36881540946385 30.856057532331505 76.00329682275307 H 0.0 **** 0.06
35673 H 87.56767142635542 31.809022454439088 77.4943685853531 H 0.0 **** 0.06
35674 H 88.43528915347284 32.281454101418745 76.01369558686741 H 0.0 **** 0.06
35675 H 88.91085492531087 30.807926676371153 76.89223066680398 H 0.0 **** 0.06
35676 C 40.657837283968874 23.50445120274486 41.81161179863935 C 0.0 **** -0.24
35677 H 41.419876193401 23.367057006795335 42.57800651369922 H 0.0 **** 0.06
35678 H 40.83865985885359 22.80958758552009 40.99080170774795 H 0.0 **** 0.06
35679 H 40.698553437277766 24.527568682526677 41.43747382360098 H 0.0 **** 0.06
35680 H 39.67400898366976 23.312428577700146 42.23890623487006 H 0.0 **** 0.06
35681 C 13.657190636097681 33.60607487552113 21.456440196261568 C 0.0 **** -0.24
35682 H 14.114909799783135 32.68233908197601 21.811622950149328 H 0.0 **** 0.06
35683 H 13.888094219352666 34.415229396928396 22.149752478705707 H 0.0 **** 0.06
35684 H 12.576558559771172 33.47557042886723 21.39647094397303 H 0.0 **** 0.06
35685 H 14.050073357678372 33.84848890236043 20.468963106023665 H 0.0 **** 0.06
35686 C 31.377708546393222 76.91950539090851 16.03629885446793 C 0.0 **** -0.24
35687 H 31.79168463551224 77.74510585783185 15.457728171154258 H 0.0 **** 0.06
35688 H 30.601506567209583 77.29670606192576 16.7024238826084 H 0.0 **** 0.06
35689 H 32.16985175037959 76.45709975291288 16.62621717823629 H 0.0 **** 0.06
35690 H 30.95044681114487 76.18016122685418 15.359744393511022 H 0.0 **** 0.06
35691 C 38.54744345610101 66.40815851992886 96.40763986114968 C 0.0 **** -0.24
35692 H 39.50592571856339 66.13857613923687 95.96501650487204 H 0.0 **** 0.06
35693 H 38.70226037904246 67.16343841969999 97.17761410501535 H 0.0 **** 0.06
35694 H 38.090746107868824 65.523126791285 96.85169708079118 H 0.0 **** 0.06
35695 H 37.89013032973878 66.80601552589377 95.63441178755934 H 0.0 **** 0.06
35696 C 14.917472118329158 91.70700913327263 8.577626942378885 C 0.0 **** -0.24
35697 H 15.642645309913974 90.89846440155611 8.676842495470794 H 0.0 **** 0.06
35698 H 14.701835261773567 91.87382287077071 7.521350736555689 H 0.0 **** 0.06
35699 H 15.327196795870123 92.617465658111 9.01369795733217 H 0.0 **** 0.06
35700 H 13.998590957286694 91.43636306130776 9.097536062976346 H 0.0 **** 0.06
35701 C 7.145301371062187 52.296647493351955 17.1022304415429 C 0.0 **** -0.24
35702 H 6.242674200602842 52.833749034794785 16.811425529587865 H 0.0 **** 0.06
35703 H 6.890537464234312 51.52618296525489 17.829634130003313 H 0.0 **** 0.06
35704 H 7.856327234534117 52.994683549267094 17.54598303933369 H 0.0 **** 0.06
35705 H 7.591897206682859 51.83431317209899 16.222570017086184 H 0.0 **** 0.06
35706 C 111.79143864084683 69.37719336837685 62.211534327108325 C 0.0 **** -0.24
35707 H 112.52190535694324 70.12930451783603 62.510446711490545 H 0.0 **** 0.06
35708 H 111.75611686840914 68.5877558508453 62.96187700370598 H 0.0 **** 0.06
35709 H 112.08081835676187 68.95262750818938 61.2498479739923 H 0.0 **** 0.06
35710 H 110.80869682186099 69.84009632807852 62.12307108863618 H 0.0 **** 0.06
35711 C 62.19628632832678 1.0280312883753453 95.16911023632173 C 0.0 **** -0.24
35712 H 62.77231208491446 0.10295941626218053 95.18945087981675 H 0.0 **** 0.06
35713 H 61.13707354652877 0.7931377388540852 95.05397196632805 H 0.0 **** 0.06
35714 H 62.52511599180775 1.6420025980493733 94.33048356789072 H 0.0 **** 0.06
35715 H 62.34873923715668 1.5724088618166974 96.10035267737652 H 0.0 **** 0.06
35716 C 92.26369329876593 66.73171042417854 68.70717106052084 C 0.0 **** -0.24
35717 H 92.50272840871938 65.67659148019666 68.83849354461245 H 0.0 **** 0.06
35718 H 92.57558433546819 67.28741879513223 69.59106445624258 H 0.0 **** 0.06
35719 H 91.18852117717282 66.84611434757787 68.56565039704606 H 0.0 **** 0.06
35720 H 92.78804646115961 67.11647740526072 67.83208617397503 H 0.0 **** 0.06
35721 C 39.53352075727011 86.68788836125407 100.51082631354114 C 0.0 **** -0.24
35722 H 40.499443629659254 86.19009455082198 100.59751961784468 H 0.0 **** 0.06
35723 H 39.04270151891788 86.7004220850497 101.48401888145654 H 0.0 **** 0.06
35724 H 38.91171845965515 86.14997676097346 99.7958876118426 H 0.0 **** 0.06
35725 H 39.682545012804155 87.7102974211474 100.16577734705703 H 0.0 **** 0.06
35726 C 1.8676658183050847 79.24030152752869 63.37394706102589 C 0.0 **** -0.24
35727 H 1.5772390051160698 80.12715261584566 62.810176862872765 H 0.0 **** 0.06
35728 H 1.0613624536857742 78.96317413238833 64.05438352666621 H 0.0 **** 0.06
35729 H 2.769772999619903 79.45334021029996 63.94668739694569 H 0.0 **** 0.06
35730 H 2.0603459485016344 78.41902447209716 62.684401052245335 H 0.0 **** 0.06
35731 C 13.368244219171995 38.52547444636817 92.79854091821392 C 0.0 **** -0.24
35732 H 12.486894705937072 38.00134145433394 93.16633427865114 H 0.0 **** 0.06
35733 H 13.830619628037468 39.07760247231474 93.61622665575706 H 0.0 **** 0.06
35734 H 13.075137177011062 39.219526078951034 92.0107757323859 H 0.0 **** 0.06
35735 H 14.08001676298002 37.80239321722445 92.39886875988103 H 0.0 **** 0.06
35736 C 110.85413851639271 86.27317662886739 46.80303802343502 C 0.0 **** -0.24
35737 H 109.79276633647191 86.51895734956807 46.82276814458126 H 0.0 **** 0.06
35738 H 111.41340967041663 87.03593276659322 47.34528821429828 H 0.0 **** 0.06
35739 H 111.19906701238062 86.23470253517928 45.76955435566893 H 0.0 **** 0.06
35740 H 111.01123747665429 85.30223717642542 47.275016839917186 H 0.0 **** 0.06
35741 C 47.67087975757846 97.39133323852732 64.36587709293957 C 0.0 **** -0.24
35742 H 48.36146186146851 97.99508553929232 64.9548906082928 H 0.0 **** 0.06
35743 H 47.4757637802885 96.45230964287171 64.8847391997165 H 0.0 **** 0.06
35744 H 48.1114470251091 97.18284383010283 63.39105504534629 H 0.0 **** 0.06
35745 H 46.7353423490718 97.93422559090791 64.23282817012142 H 0.0 **** 0.06
35746 C 73.37223150683397 4.329830252667335 10.203483974110824 C 0.0 **** -0.24
35747 H 73.51291010172116 5.225246491192223 9.598349557354283 H 0.0 **** 0.06
35748 H 72.34199838983594 4.2904790468616625 10.559376768685865 H 0.0 **** 0.06
35749 H 74.05041798582863 4.358201074609383 11.056637310151473 H 0.0 **** 0.06
35750 H 73.58285789660181 3.4467839647051335 9.600804851666297 H 0.0 **** 0.06
35751 C 45.96697028853826 81.10595555794413 48.549974796146785 C 0.0 **** -0.24
35752 H 45.71501237052473 80.41766558335613 49.35684995243085 H 0.0 **** 0.06
35753 H 45.78856759622704 80.62041899637981 47.58992001481175 H 0.0 **** 0.06
35754 H 47.01770001331022 81.3864078859151 48.62675340048128 H 0.0 **** 0.06
35755 H 45.34566293288498 81.99851991385486 48.627585780875194 H 0.0 **** 0.06
35756 C 96.43981604185254 49.731009652719024 22.71718048422311 C 0.0 **** -0.24
35757 H 95.85871590668526 48.81100981292252 22.785783370521173 H 0.0 **** 0.06
35758 H 95.76579582377235 50.578643516138186 22.595834139501417 H 0.0 **** 0.06
35759 H 97.11014389780803 49.67319758782281 21.85899648271211 H 0.0 **** 0.06
35760 H 97.02600427990885 49.85875630437886 23.62773283610317 H 0.0 **** 0.06
35761 C 68.80407380594639 110.93238680100963 103.92041359563541 C 0.0 **** -0.24
35762 H 69.00973912147501 111.35023722070935 102.93574151711908 H 0.0 **** 0.06
35763 H 69.22265732084122 111.58544038380792 104.68705387892675 H 0.0 **** 0.06
35764 H 69.25593228824391 109.94398810893281 103.99770052375834 H 0.0 **** 0.06
35765 H 67.72549509140785 110.8519222184526 104.06247310471383 H 0.0 **** 0.06
35766 C 45.36049883780332 72.23420164966299 25.00014315069694 C 0.0 **** -0.24
35767 H 44.48883258302957 72.51538063106719 24.41019430343066 H 0.0 **** 0.06
35768 H 45.769390761288825 71.2968582220478 24.619360750430662 H 0.0 **** 0.06
35769 H 45.06835904998961 72.10666527743464 26.04185430665442 H 0.0 **** 0.06
35770 H 46.11654257979435 73.01661425873482 24.926700524410208 H 0.0 **** 0.06
35771 C 106.5079148512161 108.03400073567019 33.3858212774324 C 0.0 **** -0.24
35772 H 106.81272069503726 107.3958963558228 32.55605045599603 H 0.0 **** 0.06
35773 H 106.2511250411253 107.415066193251 34.24512877606841 H 0.0 **** 0.06
35774 H 105.64068122388764 108.62413184249436 33.09008577836536 H 0.0 **** 0.06
35775 H 107.32828100676551 108.70216160836912 33.65025629848975 H 0.0 **** 0.06
35776 C 89.34314155811094 59.17402602530586 67.77256305529147 C 0.0 **** -0.24
35777 H 90.13304367943962 58.541446376240096 68.17913665239212 H 0.0 **** 0.06
35778 H 89.43295834647088 60.17848945689192 68.18657219371701 H 0.0 **** 0.06
35779 H 88.37162098007826 58.756414625072416 68.03797200027066 H 0.0 **** 0.06
35780 H 89.43569001803311 59.219205576595975 66.68764003702552 H 0.0 **** 0.06
35781 C 98.85266764704602 51.30812633456287 100.9995383413443 C 0.0 **** -0.24
35782 H 99.19856051051036 51.485152996307875 102.01769994498545 H 0.0 **** 0.06
35783 H 98.216089194174 50.422144702012076 100.98196147960076 H 0.0 **** 0.06
35784 H 99.71074827789349 51.152140771275526 100.34556468989544 H 0.0 **** 0.06
35785 H 98.28441629896022 52.17166540974222 100.65347754355653 H 0.0 **** 0.06
35786 C 102.33207077907727 17.26310473707734 98.87349970759513 C 0.0 **** -0.24
35787 H 101.46918946175276 17.102959232619536 99.51964335817772 H 0.0 **** 0.06
35788 H 101.99257975801046 17.57047096613333 97.88418011360872 H 0.0 **** 0.06
35789 H 102.9009352621461 16.336132602391455 98.7907389461723 H 0.0 **** 0.06
35790 H 102.96546148108916 18.04072341591315 99.2987745845538 H 0.0 **** 0.06
35791 C 101.09232747946601 69.68061065804625 65.87073187011305 C 0.0 **** -0.24
35792 H 101.92473928621635 70.04428762655198 66.47234884141443 H 0.0 **** 0.06
35793 H 100.60303279703174 68.85512205850955 66.38797522802014 H 0.0 **** 0.06
35794 H 101.46514834636199 69.33544802836226 64.90589001578638 H 0.0 **** 0.06
35795 H 100.37710659034684 70.48903122666133 65.71516606150402 H 0.0 **** 0.06
35796 C 55.35730643494373 68.51766530192128 63.44859974254098 C 0.0 **** -0.24
35797 H 54.441223543911704 68.8895259617488 62.991263877530514 H 0.0 **** 0.06
35798 H 55.58161769137548 69.10290912751236 64.34081471567032 H 0.0 **** 0.06
35799 H 56.18037595404412 68.6070427781641 62.73892116856723 H 0.0 **** 0.06
35800 H 55.22674469665958 67.47060190004953 63.72374572355267 H 0.0 **** 0.06
35801 C 56.124666770641454 73.57636703354518 83.76460704690311 C 0.0 **** -0.24
35802 H 55.35632602813655 73.17115188218156 83.10690991443812 H 0.0 **** 0.06
35803 H 56.38020400086276 72.83663369045857 84.52345927855617 H 0.0 **** 0.06
35804 H 55.749602750794054 74.47887485741984 84.24721143814313 H 0.0 **** 0.06
35805 H 57.012011282113576 73.81876945896897 83.17919675155926 H 0.0 **** 0.06
35806 C 69.94197783053107 12.376480964471693 110.40755892045968 C 0.0 **** -0.24
35807 H 69.79208538387934 12.086630266218332 109.36717617318988 H 0.0 **** 0.06
35808 H 69.26530641174759 11.805785683560451 111.0445252815567 H 0.0 **** 0.06
35809 H 69.73619160353383 13.440314175762936 110.52085609723471 H 0.0 **** 0.06
35810 H 70.97319786355652 12.171687756602779 110.6961111763985 H 0.0 **** 0.06
35811 C 0.985755256688833 36.39785083282234 10.201879585803113 C 0.0 **** -0.24
35812 H 1.5097845538404897 37.16406048054182 10.775046734546493 H 0.0 **** 0.06
35813 H -0.08667341185814337 36.5910573078184 10.234688450839343 H 0.0 **** 0.06
35814 H 1.1927463559516838 35.41793050203637 10.632208796382713 H 0.0 **** 0.06
35815 H 1.328130717585566 36.42043348609448 9.167971283511577 H 0.0 **** 0.06
35816 C 13.576098554098557 55.840130104324885 103.59338609146755 C 0.0 **** -0.24
35817 H 12.879504948495786 55.24861700493608 104.18780346335464 H 0.0 **** 0.06
35818 H 14.538155581668377 55.88734055292099 104.10440750552615 H 0.0 **** 0.06
35819 H 13.18118325518395 56.84850349301729 103.4692715889959 H 0.0 **** 0.06
35820 H 13.70474077001521 55.37631821473258 102.61609645926367 H 0.0 **** 0.06
35821 C 75.02269336487052 98.44583527016422 39.14883248586529 C 0.0 **** -0.24
35822 H 75.97009748182475 97.91677279657927 39.04545099951916 H 0.0 **** 0.06
35823 H 74.2031591959875 97.78270970124251 38.86864020122931 H 0.0 **** 0.06
35824 H 75.0218621606534 99.31946503937564 38.497035183576095 H 0.0 **** 0.06
35825 H 74.89531913791257 98.76395368530936 40.1833704729358 H 0.0 **** 0.06
35826 C 53.62988503448145 45.560185947716604 47.49407107163967 C 0.0 **** -0.24
35827 H 53.01968071476746 45.60099629976594 46.59143790670129 H 0.0 **** 0.06
35828 H 54.57921959923558 45.0737475826823 47.268263558162516 H 0.0 **** 0.06
35829 H 53.10466599800379 44.99459356651539 48.262538708613704 H 0.0 **** 0.06
35830 H 53.81619436869513 46.57277893207731 47.851385566935164 H 0.0 **** 0.06
35831 C 32.933096548375836 23.091405705679364 16.573964756422356 C 0.0 **** -0.24
35832 H 33.679309812039385 22.876916427187098 17.337560448105705 H 0.0 **** 0.06
35833 H 33.37829860425356 23.71226085056179 15.795032449594402 H 0.0 **** 0.06
35834 H 32.093327758284154 23.619537309414312 17.024795919095396 H 0.0 **** 0.06
35835 H 32.581199703414555 22.15631117514394 16.13632984802942 H 0.0 **** 0.06
35836 C 77.01872648892564 16.383457634714716 106.59452151078017 C 0.0 **** -0.24
35837 H 77.01891496746526 17.09255501279725 105.76620858137119 H 0.0 **** 0.06
35838 H 75.99207683611459 16.18672259996245 106.90377257423575 H 0.0 **** 0.06
35839 H 77.57788980640177 16.802364243392958 107.43048261243365 H 0.0 **** 0.06
35840 H 77.48698068938711 15.452524420952187 106.27479859005263 H 0.0 **** 0.06
35841 C 90.67612658133311 36.43759418173758 64.54766729511016 C 0.0 **** -0.24
35842 H 90.71966466402438 37.34677754239411 65.146959725183 H 0.0 **** 0.06
35843 H 90.08543886013791 36.62166993626775 63.64982066625486 H 0.0 **** 0.06
35844 H 90.2141064956839 35.64033183535889 65.13014699133615 H 0.0 **** 0.06
35845 H 91.68572018512322 36.140732006005436 64.26477693551064 H 0.0 **** 0.06
35846 C 3.3372412613138778 91.5518025709521 83.89865661229823 C 0.0 **** -0.24
35847 H 3.6251197672118565 91.20223558295385 84.8906013329339 H 0.0 **** 0.06
35848 H 2.6476489794636677 92.3898589700479 83.99509464379332 H 0.0 **** 0.06
35849 H 2.8517321901459525 90.74129342236867 83.35456168994529 H 0.0 **** 0.06
35850 H 4.226161152352347 91.87240835704026 83.35542761382214 H 0.0 **** 0.06
35851 C 41.37767983565274 72.7695029111371 23.63490424077952 C 0.0 **** -0.24
35852 H 42.37088732420119 72.68230925139878 23.19498434896036 H 0.0 **** 0.06
35853 H 41.43523592901033 72.56550421899402 24.704739881126812 H 0.0 **** 0.06
35854 H 40.706226146855556 72.05206758706103 23.16246702104499 H 0.0 **** 0.06
35855 H 40.999010034220134 73.78030860954297 23.478345951737793 H 0.0 **** 0.06
35856 C 70.2327286406595 55.06770098810885 32.736834570688735 C 0.0 **** -0.24
35857 H 69.48533867748995 55.59957262716488 33.32596207609934 H 0.0 **** 0.06
35858 H 70.55032800884351 55.693902474978735 31.902194040227336 H 0.0 **** 0.06
35859 H 69.80309078471765 54.14262473114736 32.353666763465014 H 0.0 **** 0.06
35860 H 71.09319595172917 54.836675600331056 33.36533015946361 H 0.0 **** 0.06
35861 C 75.34075686432465 29.10734020834849 101.07261187738521 C 0.0 **** -0.24
35862 H 75.0645438325339 28.195012150604327 100.54374962801492 H 0.0 **** 0.06
35863 H 74.48288993892538 29.474063839834457 101.63647934514859 H 0.0 **** 0.06
35864 H 75.65284588351187 29.864391141765182 100.35272802895975 H 0.0 **** 0.06
35865 H 76.16271788337656 28.895994730981798 101.75649604547226 H 0.0 **** 0.06
35866 C 16.00056985505904 10.707866058701057 69.44796024610437 C 0.0 **** -0.24
35867 H 15.04373789552207 10.460876457913969 68.98684834239839 H 0.0 **** 0.06
35868 H 15.959637306907979 11.720577065637457 69.84886712555712 H 0.0 **** 0.06
35869 H 16.79042149437217 10.644241484689829 68.69877485317238 H 0.0 **** 0.06
35870 H 16.207168901683872 10.004635632191693 70.25470691529705 H 0.0 **** 0.06
35871 C 68.4587815132486 9.409500884808708 5.89797613454931 C 0.0 **** -0.24
35872 H 68.01648211364059 10.321076773356992 5.495304970221383 H 0.0 **** 0.06
35873 H 67.69127686927169 8.830679989112227 6.413975659262931 H 0.0 **** 0.06
35874 H 69.25158693912448 9.669898884025457 6.600558467308986 H 0.0 **** 0.06
35875 H 68.87541401058803 8.817281339367923 5.084064170221325 H 0.0 **** 0.06
35876 C 45.396267566717995 14.108862078470708 45.05206407486742 C 0.0 **** -0.24
35877 H 44.81673572903918 13.896673711051307 44.15370817354051 H 0.0 **** 0.06
35878 H 46.436483177922696 14.289210635217643 44.77931085471198 H 0.0 **** 0.06
35879 H 45.339672636021646 13.257682639081466 45.729667863817895 H 0.0 **** 0.06
35880 H 44.99047947705412 14.993243493028288 45.54444806515727 H 0.0 **** 0.06
35881 C 7.720758251524799 61.73205986190402 27.1842009585053 C 0.0 **** -0.24
35882 H 8.253260170597471 62.64449491085867 27.450914902593126 H 0.0 **** 0.06
35883 H 6.670482672458121 61.96380903593274 27.005508616936567 H 0.0 **** 0.06
35884 H 7.800606740003758 61.01304916742356 27.999946181566372 H 0.0 **** 0.06
35885 H 8.157813173070679 61.307438910552435 26.28140234619255 H 0.0 **** 0.06
35886 C 17.593299551462422 90.5279031906982 90.63782389485038 C 0.0 **** -0.24
35887 H 17.133048848741794 90.10029386414683 89.74687385967715 H 0.0 **** 0.06
35888 H 17.155625862513872 90.0725026075205 91.52671393057946 H 0.0 **** 0.06
35889 H 17.417579341433424 91.60426916663107 90.65607706387257 H 0.0 **** 0.06
35890 H 18.665308600641296 90.33476752237948 90.62110483279375 H 0.0 **** 0.06
35891 C 14.441513245134189 31.941526659712565 26.016758497639557 C 0.0 **** -0.24
35892 H 14.517054703094686 31.23258583202852 25.19293830051231 H 0.0 **** 0.06
35893 H 14.337821631840427 32.95092483474161 25.618831674630314 H 0.0 **** 0.06
35894 H 15.341518784441405 31.883559375653363 26.62930665108479 H 0.0 **** 0.06
35895 H 13.570888843708076 31.699706622470558 26.625767995603553 H 0.0 **** 0.06
35896 C 102.03377609965776 98.4263584561638 86.1435769415088 C 0.0 **** -0.24
35897 H 101.44104408544479 98.00300900332098 86.95530932789995 H 0.0 **** 0.06
35898 H 102.41469863128913 99.40300923011037 86.44419588540902 H 0.0 **** 0.06
35899 H 101.40970120980103 98.53589571022056 85.25646052814253 H 0.0 **** 0.06
35900 H 102.86967589358807 97.76323658698209 85.92132866436589 H 0.0 **** 0.06
35901 C 74.48446344352348 3.4999718583615334 35.282167799307615 C 0.0 **** -0.24
35902 H 74.15201526182273 4.150691838852168 34.47346631242323 H 0.0 **** 0.06
35903 H 74.95850942984305 2.612699431814889 34.862494791649056 H 0.0 **** 0.06
35904 H 73.62648676027342 3.2039284770730205 35.88608148383747 H 0.0 **** 0.06
35905 H 75.20146060000934 4.0351749826349135 35.905279444492805 H 0.0 **** 0.06
35906 C 20.93489884072821 7.434293567637951 104.2086373970676 C 0.0 **** -0.24
35907 H 20.39873741294477 7.612029971158382 105.14096517999033 H 0.0 **** 0.06
35908 H 21.27968763562177 8.385019102818806 103.80084567663184 H 0.0 **** 0.06
35909 H 20.26933367092576 6.952097507860303 103.49230340793409 H 0.0 **** 0.06
35910 H 21.791693969420294 6.788840915464958 104.39987108696863 H 0.0 **** 0.06
35911 C 51.471549017931466 44.61505097942111 80.82136239908812 C 0.0 **** -0.24
35912 H 51.86746101268557 43.8908398699368 81.53411790836947 H 0.0 **** 0.06
35913 H 52.28415957181056 45.23540229447738 80.44477687077051 H 0.0 **** 0.06
35914 H 50.732068728190995 45.24459522775433 81.31693012058403 H 0.0 **** 0.06
35915 H 51.001575814926696 44.08747627225907 79.99198284270574 H 0.0 **** 0.06
35916 C 36.417467031235105 30.570795550515484 32.63624208836805 C 0.0 **** -0.24
35917 H 36.02723025318153 29.645963968166285 32.21336847174939 H 0.0 **** 0.06
35918 H 37.29376056409646 30.3504973522586 33.24622631807986 H 0.0 **** 0.06
35919 H 35.651990227355384 31.039130127168363 33.25452385763978 H 0.0 **** 0.06
35920 H 36.697074956495385 31.24966482092242 31.830035313897923 H 0.0 **** 0.06
35921 C 105.06851075012506 94.55662300444789 45.13347061151948 C 0.0 **** -0.24
35922 H 104.45858981271394 95.40017775168212 44.810010823330764 H 0.0 **** 0.06
35923 H 105.84314360223647 94.36270119092961 44.39197507618881 H 0.0 **** 0.06
35924 H 104.4381246343481 93.67327526617768 45.24064602355781 H 0.0 **** 0.06
35925 H 105.53224572011274 94.78934849000117 46.0917613207243 H 0.0 **** 0.06
35926 C 87.84420378256272 34.79835695579317 59.75167888357265 C 0.0 **** -0.24
35927 H 87.03123242541858 34.55688850285293 59.06777181130133 H 0.0 **** 0.06
35928 H 88.1592761200414 33.89462073900569 60.27436016780359 H 0.0 **** 0.06
35929 H 87.50151607907549 35.536894506883016 60.47692977551213 H 0.0 **** 0.06
35930 H 88.68374865556297 35.20426214996911 59.1888088509034 H 0.0 **** 0.06
35931 C 61.270610635069964 95.9796251544233 101.65933147240682 C 0.0 **** -0.24
35932 H 60.55001868869335 95.35831224285639 101.12751016479629 H 0.0 **** 0.06
35933 H 61.439518373681516 95.56993557488283 102.6549805022828 H 0.0 **** 0.06
35934 H 60.881037062341484 96.99476976971835 101.74491953677321 H 0.0 **** 0.06
35935 H 62.21119425494036 95.99808009116106 101.10857356338178 H 0.0 **** 0.06
35936 C 103.78339593193158 36.112679579563604 36.449618961841466 C 0.0 **** -0.24
35937 H 104.60895896624768 35.423640250250884 36.2707114939773 H 0.0 **** 0.06
35938 H 102.91016059640691 35.55419157705492 36.786205605888256 H 0.0 **** 0.06
35939 H 103.54485151648788 36.640180521544636 35.52628170728926 H 0.0 **** 0.06
35940 H 104.07181311500383 36.83303695636506 37.21549767290152 H 0.0 **** 0.06
35941 C 102.48950756212543 87.8687750161613 55.73106174821902 C 0.0 **** -0.24
35942 H 103.35071596875682 87.24398247745503 55.49861468165227 H 0.0 **** 0.06
35943 H 101.91189892489359 87.40743063877142 56.532304556392205 H 0.0 **** 0.06
35944 H 101.86436961488238 87.96996590920324 54.84409877309304 H 0.0 **** 0.06
35945 H 102.83152499654543 88.85371098870903 56.05010663135255 H 0.0 **** 0.06
35946 C 62.833614372274305 45.211734381634244 43.776772457409066 C 0.0 **** -0.24
35947 H 63.14238507757475 46.25701122079772 43.75987932564935 H 0.0 **** 0.06
35948 H 63.68472919824422 44.57873323366033 43.52573961197194 H 0.0 **** 0.06
35949 H 62.037730937911086 45.057861660679976 43.048090679588285 H 0.0 **** 0.06
35950 H 62.471071655860236 44.95705615299164 44.77164885850729 H 0.0 **** 0.06
35951 C 64.1668607856044 97.64154739141941 107.47965138721102 C 0.0 **** -0.24
35952 H 64.47011328659357 98.22191694315549 108.35083763258692 H 0.0 **** 0.06
35953 H 65.05417982201155 97.29941514421452 106.94495056704406 H 0.0 **** 0.06
35954 H 63.56270980052833 98.26449810466428 106.82019905627479 H 0.0 **** 0.06
35955 H 63.58314621642452 96.77961019685708 107.80227646962669 H 0.0 **** 0.06
35956 C 64.1069544186164 63.944903639626204 105.75771637019719 C 0.0 **** -0.24
35957 H 63.70762798421663 62.9323555720739 105.71120690929834 H 0.0 **** 0.06
35958 H 63.77320696232846 64.42506402934981 106.67826354222966 H 0.0 **** 0.06
35959 H 63.75041599451538 64.51636148598362 104.90010939003429 H 0.0 **** 0.06
35960 H 65.19586156881587 63.90702381198247 105.74099247557507 H 0.0 **** 0.06
35961 C 17.358426035125262 26.515763043627175 72.7759945259019 C 0.0 **** -0.24
35962 H 16.602444627525387 26.65870805934167 73.54835923602187 H 0.0 **** 0.06
35963 H 17.127784869032183 27.151325794788967 71.92065069551546 H 0.0 **** 0.06
35964 H 17.365433779803652 25.472469754349333 72.46406141790766 H 0.0 **** 0.06
35965 H 18.338145874073234 26.783557051447694 73.17312909133972 H 0.0 **** 0.06
35966 C 10.372601532009668 57.15878679959201 85.41785567090449 C 0.0 **** -0.24
35967 H 10.078730930002095 58.175521448455555 85.67994754873212 H 0.0 **** 0.06
35968 H 11.410216870272677 57.15675933497607 85.08392949351048 H 0.0 **** 0.06
35969 H 9.731783238114375 56.79107424979756 84.6172929259782 H 0.0 **** 0.06
35970 H 10.270752058439683 56.514542987902104 86.29138128953542 H 0.0 **** 0.06
35971 C 23.056861020103327 48.13734195913146 96.51317620237154 C 0.0 **** -0.24
35972 H 23.289474151345217 49.03117705055235 97.0916589825463 H 0.0 **** 0.06
35973 H 23.75674166018328 48.049264775623044 95.68208240458947 H 0.0 **** 0.06
35974 H 22.040199470428377 48.208776392650094 96.12649181948993 H 0.0 **** 0.06
35975 H 23.140299490354664 47.259439804617855 97.15345363571507 H 0.0 **** 0.06
35976 C 97.88781640352857 16.481364204064278 5.504568142640203 C 0.0 **** -0.24
35977 H 98.20181445651684 15.671159420297357 6.162175004753008 H 0.0 **** 0.06
35978 H 98.5102075329541 17.358426672186283 5.684876646225382 H 0.0 **** 0.06
35979 H 96.84459424671678 16.728176505565898 5.704951978482985 H 0.0 **** 0.06
35980 H 97.99386621648006 16.16716399766102 4.465944008730272 H 0.0 **** 0.06
35981 C 2.718833749574941 94.79424329328015 101.138654498287 C 0.0 **** -0.24
35982 H 3.3215295765945427 93.89566468078885 101.26552660746626 H 0.0 **** 0.06
35983 H 1.779071546135853 94.6810148781378 101.67978734349953 H 0.0 **** 0.06
35984 H 2.5123629676408825 94.94628881100448 100.07945794404358 H 0.0 **** 0.06
35985 H 3.262370907928556 95.65400480318968 101.52984609813876 H 0.0 **** 0.06
35986 C 101.32054801153905 55.254145885762625 103.67011230998179 C 0.0 **** -0.24
35987 H 100.62601082906966 55.001665290622554 104.47023726292039 H 0.0 **** 0.06
35988 H 101.47951389314485 56.33278061580637 103.65428806488984 H 0.0 **** 0.06
35989 H 100.90645428469998 54.93374318760118 102.71431480937619 H 0.0 **** 0.06
35990 H 102.27112930010486 54.749441538304666 103.84186244738393 H 0.0 **** 0.06
35991 C 109.10691843253741 30.36979959418545 75.47513704511414 C 0.0 **** -0.24
35992 H 108.30539278394428 29.69654379769321 75.77600171732891 H 0.0 **** 0.06
35993 H 108.67916078912228 31.29293929476404 75.08400422365659 H 0.0 **** 0.06
35994 H 109.71128524199034 29.893971847443993 74.70303984403643 H 0.0 **** 0.06
35995 H 109.7330860053552 30.596348461730827 76.33853626593398 H 0.0 **** 0.06
35996 C 84.89870448760976 49.554219921646364 30.605974227682267 C 0.0 **** -0.24
35997 H 84.30045310387473 49.18327729064529 29.77365623268426 H 0.0 **** 0.06
35998 H 85.21278599141573 50.577897617706554 30.399251609090967 H 0.0 **** 0.06
35999 H 85.77678620300284 48.92176116397326 30.731504049451644 H 0.0 **** 0.06
36000 H 84.30231879002662 49.53316784976474 31.51797548110312 H 0.0 **** 0.06
36001 C 24.187857964143262 80.21214903726337 59.24178645924936 C 0.0 **** -0.24
36002 H 23.16104357055383 80.23858615630877 59.609500739583886 H 0.0 **** 0.06
36003 H 24.247712290901916 80.74691725695521 58.29399651045774 H 0.0 **** 0.06
36004 H 24.494069541607104 79.17711848779396 59.09608979526478 H 0.0 **** 0.06
36005 H 24.845077318053256 80.68719185663383 59.97021657710901 H 0.0 **** 0.06
36006 C 4.751153383732344 73.97244824591829 32.40544970487471 C 0.0 **** -0.24
36007 H 4.349763648486217 74.4897428805553 33.276518528303 H 0.0 **** 0.06
36008 H 4.895506571574529 74.68592927281685 31.59425036947505 H 0.0 **** 0.06
36009 H 4.051005037925535 73.19880759877441 32.08861869350156 H 0.0 **** 0.06
36010 H 5.706113573536598 73.51516144522088 32.66257837871464 H 0.0 **** 0.06
36011 C 84.174901232635 70.70361762826639 97.34262128231504 C 0.0 **** -0.24
36012 H 83.37080605768688 70.31208801486355 96.71848269552814 H 0.0 **** 0.06
36013 H 84.11935087512384 70.24963859475571 98.33158818550336 H 0.0 **** 0.06
36014 H 84.07165248903277 71.78448425531764 97.43134189740482 H 0.0 **** 0.06
36015 H 85.13634738231968 70.46550191414059 96.88699903768324 H 0.0 **** 0.06
36016 C 16.6026858312282 92.2157577944894 111.90341012756556 C 0.0 **** -0.24
36017 H 17.55728535969328 91.7376888004917 112.12123142804299 H 0.0 **** 0.06
36018 H 16.744038231409007 92.97054218410511 111.12927418158266 H 0.0 **** 0.06
36019 H 16.21914561833981 92.68910752070474 112.80723219464228 H 0.0 **** 0.06
36020 H 15.892173402090208 91.46603778322043 111.55537941264598 H 0.0 **** 0.06
36021 C 0.18522767684939367 101.9969954070213 35.86834838574191 C 0.0 **** -0.24
36022 H -0.23446744369223893 102.58830963129998 36.6817577818004 H 0.0 **** 0.06
36023 H 1.2503602988640665 102.21068494309174 35.7750064675389 H 0.0 **** 0.06
36024 H -0.3205723310100268 102.25060318889524 34.93667470984934 H 0.0 **** 0.06
36025 H 0.044145897394642475 100.9370391898504 36.0802803361197 H 0.0 **** 0.06
36026 C 8.442341830211035 1.8680940394534105 53.457065786571945 C 0.0 **** -0.24
36027 H 7.815675697680362 1.0702870006048215 53.0591300555823 H 0.0 **** 0.06
36028 H 8.16475173455649 2.065704634973315 54.492553688281276 H 0.0 **** 0.06
36029 H 8.30133319676824 2.7713188534794426 52.86374557871858 H 0.0 **** 0.06
36030 H 9.4884217680045 1.563971508687061 53.413206084414725 H 0.0 **** 0.06
36031 C 47.55158949301074 6.45396551144529 98.05168549322514 C 0.0 **** -0.24
36032 H 47.23086826271134 5.823288447632137 97.22209718284358 H 0.0 **** 0.06
36033 H 46.80800613755872 7.232225925355294 98.22358928723895 H 0.0 **** 0.06
36034 H 48.50957933754006 6.914019044781014 97.80843537472958 H 0.0 **** 0.06
36035 H 47.65744591355866 5.846242078761293 98.94965652185618 H 0.0 **** 0.06
36036 C 92.14370548301991 0.64057961758121 36.236232346770876 C 0.0 **** -0.24
36037 H 92.18504259366571 0.35283909336891384 35.18585384048751 H 0.0 **** 0.06
36038 H 92.32682412209215 1.7115476062421209 36.32806136369305 H 0.0 **** 0.06
36039 H 92.90377519020956 0.09187856794569882 36.79325446655207 H 0.0 **** 0.06
36040 H 91.15746253821789 0.40469450897408876 36.638211900079526 H 0.0 **** 0.06
36041 C 39.17175152535958 65.90979304323548 42.14370350219508 C 0.0 **** -0.24
36042 H 38.90663659253201 66.89313331250025 41.754466538853706 H 0.0 **** 0.06
36043 H 38.50222869959461 65.6522727592716 42.963856432597254 H 0.0 **** 0.06
36044 H 40.19984309062556 65.9278032737214 42.50524983341535 H 0.0 **** 0.06
36045 H 39.07803695898454 65.16864009270807 41.350366727558026 H 0.0 **** 0.06
36046 C 27.98946823613921 102.7528372306501 12.868489143984231 C 0.0 **** -0.24
36047 H 29.06644214745623 102.76376031511504 12.702112324895769 H 0.0 **** 0.06
36048 H 27.501152907116072 103.3927200758389 12.133387461602446 H 0.0 **** 0.06
36049 H 27.773614177496185 103.12063262208713 13.871896338780154 H 0.0 **** 0.06
36050 H 27.617677472431097 101.73328076455002 12.767590090867685 H 0.0 **** 0.06
36051 C 63.01530325398101 39.14904202699704 11.741088338195254 C 0.0 **** -0.24
36052 H 63.44490668602412 39.501206817413326 12.67854991190461 H 0.0 **** 0.06
36053 H 62.21559513312197 39.82300046252723 11.431961492156262 H 0.0 **** 0.06
36054 H 62.611429812393006 38.14632287582388 11.880404271045734 H 0.0 **** 0.06
36055 H 63.78810247170278 39.12601040209241 10.972750975824312 H 0.0 **** 0.06
36056 C 6.846516991889359 71.06329390559571 96.89209082378724 C 0.0 **** -0.24
36057 H 6.545709706409525 70.1702142258485 97.43963446563617 H 0.0 **** 0.06
36058 H 6.7124046547886 71.940446492713 97.5262096520234 H 0.0 **** 0.06
36059 H 6.232038859068496 71.16471026638376 95.9970753031379 H 0.0 **** 0.06
36060 H 7.894020501322245 70.9781719368253 96.60597032498146 H 0.0 **** 0.06
36061 C 6.400488097537945 70.13845888980816 25.117953798811868 C 0.0 **** -0.24
36062 H 5.8770868212557446 69.3806613461698 24.53688043949225 H 0.0 **** 0.06
36063 H 5.752073219559435 70.49507946209869 25.91826830219418 H 0.0 **** 0.06
36064 H 6.669355244467425 70.97212509229757 24.469031980678608 H 0.0 **** 0.06
36065 H 7.305298193679818 69.70703381365368 25.546998700736367 H 0.0 **** 0.06
36066 C 58.76950970428413 15.001322026555897 87.58881220426375 C 0.0 **** -0.24
36067 H 59.11671907974625 15.848236636317573 86.99712421863353 H 0.0 **** 0.06
36068 H 57.855160646484364 14.601886168111147 87.14913251345695 H 0.0 **** 0.06
36069 H 58.5699002754684 15.328060946147211 88.60921855894637 H 0.0 **** 0.06
36070 H 59.5373077022453 14.22656012473572 87.59899650438035 H 0.0 **** 0.06
36071 C 2.4858092407924346 18.548818520443746 11.020123296513944 C 0.0 **** -0.24
36072 H 1.4745803063299476 18.681730454902635 11.404133488326579 H 0.0 **** 0.06
36073 H 2.4950222202162937 17.737156285671006 10.293399232445879 H 0.0 **** 0.06
36074 H 3.1581157784627134 18.307250531647327 11.844561484817234 H 0.0 **** 0.06
36075 H 2.8155814437989513 19.47032895711763 10.540289780764581 H 0.0 **** 0.06
36076 C 15.929919763800967 46.83143722269179 3.657275467999767 C 0.0 **** -0.24
36077 H 16.384015958720852 47.73403644343503 3.2490112742733572 H 0.0 **** 0.06
36078 H 15.600469943238068 46.18925971915863 2.8401467821610993 H 0.0 **** 0.06
36079 H 15.074150492957642 47.10342533044869 4.274839060986892 H 0.0 **** 0.06
36080 H 16.66297351040714 46.30011377217758 4.264801617676625 H 0.0 **** 0.06
36081 C 33.14002712752426 77.81099302642664 89.52485807503547 C 0.0 **** -0.24
36082 H 32.26073290207165 77.77712576794124 88.88198481023156 H 0.0 **** 0.06
36083 H 32.87603516714256 77.45117737585642 90.51997334801663 H 0.0 **** 0.06
36084 H 33.500430006372824 78.83778746437491 89.59407792096718 H 0.0 **** 0.06
36085 H 33.92176783278745 77.17838964461541 89.10495714204586 H 0.0 **** 0.06
36086 C 111.83803124319107 102.9046084867577 70.61708404888196 C 0.0 **** -0.24
36087 H 111.2022083932965 103.0468060117719 69.74285433370008 H 0.0 **** 0.06
36088 H 111.32579779943109 102.26565572138676 71.33698591566298 H 0.0 **** 0.06
36089 H 112.04817637999302 103.87204589611787 71.07452512795564 H 0.0 **** 0.06
36090 H 112.77280351292823 102.43537925371976 70.31416329013126 H 0.0 **** 0.06
36091 C 50.2141026095419 111.7724717580515 29.170242302873646 C 0.0 **** -0.24
36092 H 50.23157517079426 112.74252231360282 29.665876193935873 H 0.0 **** 0.06
36093 H 51.096934773635354 111.20129103223172 29.458286339350394 H 0.0 **** 0.06
36094 H 50.211218374221204 111.91665044006567 28.089695407021708 H 0.0 **** 0.06
36095 H 49.31628968868253 111.22893620242507 29.466330987249705 H 0.0 **** 0.06
36096 C 69.87904565832815 53.87810465503725 78.66949418760669 C 0.0 **** -0.24
36097 H 70.0534630573822 54.41945459842418 77.73942794147024 H 0.0 **** 0.06
36098 H 70.30159285367918 52.876363003578376 78.59150109901725 H 0.0 **** 0.06
36099 H 68.80688632861242 53.807835563487174 78.8526908353632 H 0.0 **** 0.06
36100 H 70.35415357922477 54.41098206602891 79.49331791469399 H 0.0 **** 0.06
36101 C 9.752284826257714 67.78111473996202 13.5744360627114 C 0.0 **** -0.24
36102 H 8.809936422847027 67.29845404782463 13.83334633225249 H 0.0 **** 0.06
36103 H 10.51240650713731 67.50718471509234 14.305904960350261 H 0.0 **** 0.06
36104 H 9.618532738574181 68.86328575462457 13.57682647609306 H 0.0 **** 0.06
36105 H 10.06625625329454 67.45585072657681 12.583034223857211 H 0.0 **** 0.06
36106 C 70.62145357151877 47.07209538575489 89.56653629565042 C 0.0 **** -0.24
36107 H 70.11156492985504 47.027531586011094 88.60418655163096 H 0.0 **** 0.06
36108 H 71.20328649567966 46.161501335074774 89.71034981876943 H 0.0 **** 0.06
36109 H 69.88502562591873 47.16277603698535 90.36484655846868 H 0.0 **** 0.06
36110 H 71.28714497399841 47.93494567595167 89.58581630641291 H 0.0 **** 0.06
36111 C 78.41418497116317 37.659793086653735 71.0486398241732 C 0.0 **** -0.24
36112 H 79.31019675757193 37.879098378927836 71.62941298496645 H 0.0 **** 0.06
36113 H 78.0973568803633 38.557189155940534 70.51711310603127 H 0.0 **** 0.06
36114 H 77.61889968817354 37.33323609020863 71.71883997850512 H 0.0 **** 0.06
36115 H 78.63199021646551 36.86862756999989 70.33022039944498 H 0.0 **** 0.06
36116 C 63.91802611268454 91.49667023261992 101.31793501038047 C 0.0 **** -0.24
36117 H 63.471894670581015 91.0795638025375 100.4152477234216 H 0.0 **** 0.06
36118 H 64.99692329873324 91.3384472751801 101.29734799097574 H 0.0 **** 0.06
36119 H 63.494716540084504 91.00404061834394 102.19350195853653 H 0.0 **** 0.06
36120 H 63.70822452336923 92.56555154101108 101.36546889323529 H 0.0 **** 0.06
36121 C 16.07893615830119 3.5165826732030325 21.67515390359037 C 0.0 **** -0.24
36122 H 16.539721623215 2.827426991993093 20.96763600472474 H 0.0 **** 0.06
36123 H 15.005206950745034 3.332290252705377 21.715032493221035 H 0.0 **** 0.06
36124 H 16.260025781029256 4.542850215244528 21.353428941695007 H 0.0 **** 0.06
36125 H 16.511845644926495 3.364351433106094 22.66327704952273 H 0.0 **** 0.06
36126 C 85.08951605608416 93.56760265988513 28.220479569942114 C 0.0 **** -0.24
36127 H 84.29445210187254 93.4009802511269 28.94655574577442 H 0.0 **** 0.06
36128 H 84.94923003847589 94.53719358597422 27.74321797653087 H 0.0 **** 0.06
36129 H 85.06113600018023 92.78233394674709 27.46463497796742 H 0.0 **** 0.06
36130 H 86.05442336955898 93.54812093586355 28.728172183150747 H 0.0 **** 0.06
36131 C 91.42085837048643 46.71138049900436 68.31693154113375 C 0.0 **** -0.24
36132 H 90.39793150193836 46.926905789209 68.01126381914347 H 0.0 **** 0.06
36133 H 92.11591549450682 47.19133588115608 67.62715775194559 H 0.0 **** 0.06
36134 H 91.58393411688866 45.633710243998394 68.30641913466849 H 0.0 **** 0.06
36135 H 91.58712165398106 47.093235289363065 69.32453754783185 H 0.0 **** 0.06
36136 C 98.18540506773408 28.99521306142517 19.865918859455036 C 0.0 **** -0.24
36137 H 97.57312372121334 28.50712741875136 19.107310016747988 H 0.0 **** 0.06
36138 H 98.77565081888554 29.786222070783758 19.40206957933728 H 0.0 **** 0.06
36139 H 98.8523291265497 28.26201679366592 20.31988905927352 H 0.0 **** 0.06
36140 H 97.54048918229986 29.424165229795918 20.632602566072364 H 0.0 **** 0.06
36141 C 89.24763112392097 53.388597530354446 31.54411494038561 C 0.0 **** -0.24
36142 H 89.85951520439812 52.54644703929705 31.86703102912793 H 0.0 **** 0.06
36143 H 88.43131390308986 53.025264859705544 30.919077334137086 H 0.0 **** 0.06
36144 H 89.86106566905724 54.084091731104195 30.972070172147937 H 0.0 **** 0.06
36145 H 88.83904946556112 53.897043894575745 32.416717739042014 H 0.0 **** 0.06
36146 C 25.146865610806742 36.65760602088143 76.15109871773299 C 0.0 **** -0.24
36147 H 25.99175101230614 37.30326413827822 76.39111258271038 H 0.0 **** 0.06
36148 H 24.57418529822729 37.099088296295996 75.3348885091651 H 0.0 **** 0.06
36149 H 24.508716705016 36.553277712198756 77.02857576399748 H 0.0 **** 0.06
36150 H 25.51318583945327 35.676710463723715 75.84938735807324 H 0.0 **** 0.06
36151 C 19.614657562694617 90.92459213516568 78.05114305110396 C 0.0 **** -0.24
36152 H 19.694016689533527 89.98101327554812 77.51132229276362 H 0.0 **** 0.06
36153 H 18.671026726756864 90.95105706438235 78.597711384723 H 0.0 **** 0.06
36154 H 19.647336257928018 91.75277071610643 77.34250789259028 H 0.0 **** 0.06
36155 H 20.4438124543437 91.01347680359663 78.75279969747896 H 0.0 **** 0.06
36156 C 47.8363633313123 29.439467631848686 38.68641561876751 C 0.0 **** -0.24
36157 H 48.065003753778655 30.007318420099494 39.58800000187776 H 0.0 **** 0.06
36158 H 48.7543804149596 29.00871519446011 38.28658269701998 H 0.0 **** 0.06
36159 H 47.392005524447995 30.10262432491544 37.94319033974185 H 0.0 **** 0.06
36160 H 47.134430431564795 28.641393024508744 38.92755561308604 H 0.0 **** 0.06
36161 C 85.52072680227661 29.01945508809402 39.428350154121574 C 0.0 **** -0.24
36162 H 85.19086855897262 28.311107280909255 38.66821442398839 H 0.0 **** 0.06
36163 H 86.00365752549311 28.479574923831137 40.243300309740505 H 0.0 **** 0.06
36164 H 84.65966850045541 29.56573061337039 39.81399256220658 H 0.0 **** 0.06
36165 H 86.22805004789768 29.721975072326956 38.98838214560635 H 0.0 **** 0.06
36166 C 85.3665533661937 112.06432980657274 2.370966376816728 C 0.0 **** -0.24
36167 H 86.40826017590612 111.7660947691054 2.49129593099879 H 0.0 **** 0.06
36168 H 84.72102708129148 111.3310082130485 2.85425991286022 H 0.0 **** 0.06
36169 H 85.12606330219302 112.11830899650323 1.3093091098869305 H 0.0 **** 0.06
36170 H 85.21412090426168 113.0419683353004 2.8278248017210252 H 0.0 **** 0.06
36171 C 12.151732738547498 61.40436444021163 34.41253036225147 C 0.0 **** -0.24
36172 H 12.487777087405831 60.37339386762475 34.51665616316654 H 0.0 **** 0.06
36173 H 13.013654316346859 62.051371136523564 34.24358649622563 H 0.0 **** 0.06
36174 H 11.63868768041602 61.71357707981992 35.323078379376675 H 0.0 **** 0.06
36175 H 11.468684294449968 61.48050943002243 33.5660575648461 H 0.0 **** 0.06
36176 C 81.11291043305934 90.49086374141149 9.167402532513544 C 0.0 **** -0.24
36177 H 80.63608326965783 91.42372673812017 8.865806940502223 H 0.0 **** 0.06
36178 H 81.98640608783057 90.7102222162454 9.780708771174016 H 0.0 **** 0.06
36179 H 81.41982038886854 89.93716933651532 8.279983699619047 H 0.0 **** 0.06
36180 H 80.40561953344607 89.89218891073463 9.742667258673908 H 0.0 **** 0.06
36181 C 71.3089607014648 100.37376876500744 59.619690803907986 C 0.0 **** -0.24
36182 H 70.89204648757243 99.70645026361063 60.37408987203028 H 0.0 **** 0.06
36183 H 72.22664822087177 99.94174921582032 59.2209852785229 H 0.0 **** 0.06
36184 H 71.52873117740273 101.34052176346808 60.07237054951753 H 0.0 **** 0.06
36185 H 70.58766771758849 100.50590319677977 58.81311636628385 H 0.0 **** 0.06
36186 C 94.36030165193168 2.0792140850682017 13.269166835089422 C 0.0 **** -0.24
36187 H 93.50960172078982 2.7402442517715713 13.437125694971925 H 0.0 **** 0.06
36188 H 94.19472546982058 1.496885696642238 12.362007178425841 H 0.0 **** 0.06
36189 H 94.47031604239385 1.4054729927626681 14.11835062540132 H 0.0 **** 0.06
36190 H 95.26609527677246 2.6753350798865654 13.157914581479517 H 0.0 **** 0.06
36191 C 56.78782319535742 80.52515004188695 85.87505890136498 C 0.0 **** -0.24
36192 H 57.28300839514054 81.46163566605037 86.13390006175345 H 0.0 **** 0.06
36193 H 56.00400402927704 80.31531046456129 86.60340106058518 H 0.0 **** 0.06
36194 H 57.516654241420895 79.71495159936597 85.88055015456976 H 0.0 **** 0.06
36195 H 56.346722136895494 80.61068405183082 84.8818780568283 H 0.0 **** 0.06
36196 C 4.290008846413528 76.45649235986764 107.4790927410827 C 0.0 **** -0.24
36197 H 3.6305099321843386 76.91482009244555 106.74289426352485 H 0.0 **** 0.06
36198 H 4.7186055106292315 77.231852120231 108.11389469200344 H 0.0 **** 0.06
36199 H 5.08938432036318 75.92089789636316 106.96782494033866 H 0.0 **** 0.06
36200 H 3.7192370886058796 75.7588067201707 108.09249944032763 H 0.0 **** 0.06
36201 C 25.741780905539372 107.26895911963192 97.37643230398686 C 0.0 **** -0.24
36202 H 25.56521015804205 106.82004611734033 98.35389855882838 H 0.0 **** 0.06
36203 H 26.31124522922775 108.18986526662076 97.49726515253926 H 0.0 **** 0.06
36204 H 24.786095107814106 107.49134860420554 96.90232795626696 H 0.0 **** 0.06
36205 H 26.30302708388203 106.57222988232132 96.75368797872932 H 0.0 **** 0.06
36206 C 48.91748120855596 2.3269756441804077 99.24754400619497 C 0.0 **** -0.24
36207 H 48.47871729030763 2.2744677950899472 98.2505251455691 H 0.0 **** 0.06
36208 H 48.156791336228196 2.0903060565309204 99.99144037718389 H 0.0 **** 0.06
36209 H 49.29823162628807 3.333823656069086 99.42285705876088 H 0.0 **** 0.06
36210 H 49.735890427477486 1.610778770397701 99.32192671423019 H 0.0 **** 0.06
36211 C 70.1929574061682 106.82332643034324 81.7200712201635 C 0.0 **** -0.24
36212 H 70.17588718264284 106.24647435518463 82.64486724719458 H 0.0 **** 0.06
36213 H 71.14554929601871 107.34720207595001 81.6359199421924 H 0.0 **** 0.06
36214 H 69.37878013514276 107.5486882155684 81.72961583153935 H 0.0 **** 0.06
36215 H 70.07109612925629 106.15162248996145 80.87040009068352 H 0.0 **** 0.06
36216 C 7.146397480559196 60.742028066388286 85.48160137018405 C 0.0 **** -0.24
36217 H 7.855695185232957 59.9683552514301 85.19021941350968 H 0.0 **** 0.06
36218 H 6.996875624621911 61.429533553818146 84.64827797233826 H 0.0 **** 0.06
36219 H 7.538473798442906 61.290075100662904 86.33857337691208 H 0.0 **** 0.06
36220 H 6.1945800344871405 60.281860791025565 85.74907675788057 H 0.0 **** 0.06
36221 C 110.23198093016862 109.07417195771959 2.5656114350733485 C 0.0 **** -0.24
36222 H 110.41708260441224 108.23854098209625 1.8907769194708592 H 0.0 **** 0.06
36223 H 110.58423529839574 109.99741861722245 2.1042179735612656 H 0.0 **** 0.06
36224 H 110.764831483363 108.90994136220516 3.501645585147175 H 0.0 **** 0.06
36225 H 109.16324465122376 109.15099869132823 2.763198768164761 H 0.0 **** 0.06
36226 C 99.32428886472002 80.22037488160305 42.41495967631232 C 0.0 **** -0.24
36227 H 98.83623538182331 79.2723604773814 42.18810974102587 H 0.0 **** 0.06
36228 H 100.27492071483184 80.27507204260203 41.882892207410464 H 0.0 **** 0.06
36229 H 99.50366721229625 80.28851280049219 43.487715004872996 H 0.0 **** 0.06
36230 H 98.6832029106084 81.04305626261029 42.099706631630085 H 0.0 **** 0.06
36231 C 28.4771091320589 44.69325192516857 40.180547368590624 C 0.0 **** -0.24
36232 H 28.02273471507121 43.731725716214754 40.41968881759436 H 0.0 **** 0.06
36233 H 29.142504954416893 44.57676788597726 39.32522506313353 H 0.0 **** 0.06
36234 H 29.04624539174253 45.049787644947344 41.03877551951052 H 0.0 **** 0.06
36235 H 27.69522643534009 45.41331411172814 39.938672816689916 H 0.0 **** 0.06
36236 C 78.417181425661 59.3393905115899 102.0722088957634 C 0.0 **** -0.24
36237 H 79.44367533365454 59.150076961912674 102.38599069892015 H 0.0 **** 0.06
36238 H 77.77838563653981 58.52360955906164 102.4110787577815 H 0.0 **** 0.06
36239 H 78.37566431812738 59.40548052714985 100.98492887718669 H 0.0 **** 0.06
36240 H 78.07197408694512 60.27699939881114 102.50716041172655 H 0.0 **** 0.06
36241 C 53.56112324390452 89.17155378738525 112.67950337277884 C 0.0 **** -0.24
36242 H 53.13175057045873 88.60006553158775 113.50248859723233 H 0.0 **** 0.06
36243 H 53.28266269492416 88.70799933210952 111.73221699886992 H 0.0 **** 0.06
36244 H 54.64685371512551 89.1826848432041 112.77408572082528 H 0.0 **** 0.06
36245 H 53.18253086949472 90.19333426136487 112.71020969993182 H 0.0 **** 0.06
36246 C 70.24384166478967 60.34567852371657 75.30765806491766 C 0.0 **** -0.24
36247 H 69.50030821048207 59.90857551580723 75.97417839860742 H 0.0 **** 0.06
36248 H 70.42451811453927 61.38208009138776 75.59396251307524 H 0.0 **** 0.06
36249 H 69.877566658738 60.310329658289334 74.2819995318226 H 0.0 **** 0.06
36250 H 71.17361598002284 59.78099403968571 75.38070995739497 H 0.0 **** 0.06
36251 C 69.45867586497414 74.52099604099408 64.0230654775196 C 0.0 **** -0.24
36252 H 68.76360726008753 74.78512159933916 63.22525297666693 H 0.0 **** 0.06
36253 H 69.87075926220464 75.4303684074898 64.46040465794411 H 0.0 **** 0.06
36254 H 70.26719583906586 73.91572225118762 63.61329911357458 H 0.0 **** 0.06
36255 H 68.9324683834478 73.95473633068758 64.79035741236103 H 0.0 **** 0.06
36256 C 69.37912066639515 35.359599186988056 5.307312922036317 C 0.0 **** -0.24
36257 H 69.16662064258901 34.97847643374519 6.306165552503785 H 0.0 **** 0.06
36258 H 69.41802755882773 36.4487267112793 5.334751942447497 H 0.0 **** 0.06
36259 H 68.59211412917145 35.04170276094485 4.6226414494764185 H 0.0 **** 0.06
36260 H 70.33741488435865 34.969331974728895 4.964880340546216 H 0.0 **** 0.06
36261 C 92.24229280941961 33.505265040888034 77.88332500376137 C 0.0 **** -0.24
36262 H 93.19653324545055 34.02165518270502 77.97831814413678 H 0.0 **** 0.06
36263 H 91.55083123716852 34.12070719216818 77.30768166732054 H 0.0 **** 0.06
36264 H 91.82779065140062 33.32282458136343 78.87476225650715 H 0.0 **** 0.06
36265 H 92.39361641643674 32.553457348800904 77.37247300014764 H 0.0 **** 0.06
36266 C 22.618885303625945 80.84793590122524 34.3912488791582 C 0.0 **** -0.24
36267 H 23.049561189358485 80.22619227914913 33.605606080915095 H 0.0 **** 0.06
36268 H 22.907078055436244 81.88671595912263 34.23233608103209 H 0.0 **** 0.06
36269 H 22.986462651834984 80.51292177052312 35.36096058452635 H 0.0 **** 0.06
36270 H 21.53168150169705 80.7638359130882 34.36576226821202 H 0.0 **** 0.06
36271 C 61.275437028537795 18.36088499256181 6.186933673513016 C 0.0 **** -0.24
36272 H 62.12241244768694 19.03773221253427 6.293553555568016 H 0.0 **** 0.06
36273 H 60.627982244525924 18.712855662863422 5.383532550716982 H 0.0 **** 0.06
36274 H 60.71321312395395 18.33315193736406 7.120562921462103 H 0.0 **** 0.06
36275 H 61.637511393567706 17.360921252203312 5.950675360560812 H 0.0 **** 0.06
36276 C 15.092263726915814 59.30892496662994 51.01728156999755 C 0.0 **** -0.24
36277 H 14.635680338067736 60.260532125626135 51.29403950835734 H 0.0 **** 0.06
36278 H 14.449949074347519 58.79249297523396 50.30420986632538 H 0.0 **** 0.06
36279 H 15.215261199193545 58.693957727690865 51.90899022571321 H 0.0 **** 0.06
36280 H 16.066553383936 59.49169499872077 50.563479634721546 H 0.0 **** 0.06
36281 C 61.30650019664332 111.81739096652817 40.747776270309004 C 0.0 **** -0.24
36282 H 61.61116433654302 112.56045292375866 41.48542871924994 H 0.0 **** 0.06
36283 H 60.51384315064059 112.23091298119178 40.12392872276817 H 0.0 **** 0.06
36284 H 60.94165651769709 110.9263985429408 41.25828479334612 H 0.0 **** 0.06
36285 H 62.16158881186082 111.55450770799118 40.1242337311115 H 0.0 **** 0.06
36286 C 5.125572381844663 98.08748628411789 5.120947034895423 C 0.0 **** -0.24
36287 H 6.013510344040398 97.64301951250656 4.670541777050232 H 0.0 **** 0.06
36288 H 5.3999567171103 99.0140997259067 5.62542118910001 H 0.0 **** 0.06
36289 H 4.698450906517721 97.39206683071012 5.843285184545735 H 0.0 **** 0.06
36290 H 4.3921003425800365 98.30018528985582 4.343713964628392 H 0.0 **** 0.06
36291 C 74.78427581784581 90.95952729605878 26.488868891939234 C 0.0 **** -0.24
36292 H 74.53024054134403 89.9294374674192 26.738447340365838 H 0.0 **** 0.06
36293 H 75.2503940555437 91.4377959741914 27.349687216582424 H 0.0 **** 0.06
36294 H 73.87704783649303 91.5010004673573 26.217554158780473 H 0.0 **** 0.06
36295 H 75.47736521148832 90.96865034134106 25.64691026887415 H 0.0 **** 0.06
36296 C 1.8410556123709085 8.676118123030015 89.73628630948446 C 0.0 **** -0.24
36297 H 1.575796056848688 8.796496680554817 90.78695266838068 H 0.0 **** 0.06
36298 H 2.9151080392832114 8.822298372682349 89.6143715605682 H 0.0 **** 0.06
36299 H 1.3030797291326053 9.411553174119046 89.13819884256685 H 0.0 **** 0.06
36300 H 1.5709123635544557 7.67257758330671 89.40739817096056 H 0.0 **** 0.06
36301 C 32.224067908334206 43.29868403580862 109.62332864395005 C 0.0 **** -0.24
36302 H 31.380797325041385 43.92506926407189 109.33390748147644 H 0.0 **** 0.06
36303 H 32.8270210138399 43.07141600416026 108.74353989198171 H 0.0 **** 0.06
36304 H 31.855409220420114 42.37023982357052 110.06069756040142 H 0.0 **** 0.06
36305 H 32.834465268142196 43.82676396464712 110.35636348677194 H 0.0 **** 0.06
36306 C 53.00899615110524 52.31379801692384 98.20792514823046 C 0.0 **** -0.24
36307 H 52.38341499251151 51.4845884719698 98.53940240962959 H 0.0 **** 0.06
36308 H 52.44519732670975 53.24440672491295 98.2782867177545 H 0.0 **** 0.06
36309 H 53.311789136607516 52.14987596466699 97.17364115943775 H 0.0 **** 0.06
36310 H 53.89390118401255 52.37591847908823 98.84027429678798 H 0.0 **** 0.06
36311 C 81.50212906626933 39.442908928960094 87.72554197965403 C 0.0 **** -0.24
36312 H 80.99077100429679 39.91395525549916 88.56608036725768 H 0.0 **** 0.06
36313 H 82.48440713510294 39.89748010309239 87.59779920291805 H 0.0 **** 0.06
36314 H 80.91512451910319 39.58442666677888 86.81834919269446 H 0.0 **** 0.06
36315 H 81.61664490448405 38.37727846205394 87.92174893198097 H 0.0 **** 0.06
36316 C 26.16163260380131 103.64635142351926 17.01744063835585 C 0.0 **** -0.24
36317 H 25.885408336083245 103.5513524978866 18.06781998753806 H 0.0 **** 0.06
36318 H 25.270593499514717 103.54511632654527 16.397066385198286 H 0.0 **** 0.06
36319 H 26.87572435402882 102.8642701257304 16.758830457312598 H 0.0 **** 0.06
36320 H 26.613575913347276 104.6232168367834 16.84722440992806 H 0.0 **** 0.06
36321 C 40.13340755688942 41.56899172242561 33.97330772976511 C 0.0 **** -0.24
36322 H 40.1760376550602 41.91708026599656 32.94108272948989 H 0.0 **** 0.06
36323 H 40.129331726665214 40.47838415784639 33.98850662592167 H 0.0 **** 0.06
36324 H 39.22500108128309 41.942383966582724 34.44534296074164 H 0.0 **** 0.06
36325 H 41.003567977541046 41.936965866221215 34.51640737965005 H 0.0 **** 0.06
36326 C 45.682005282255915 83.03558001320957 91.98685417717155 C 0.0 **** -0.24
36327 H 45.340333801736875 82.8186171262085 92.99869856669571 H 0.0 **** 0.06
36328 H 45.343693556696195 82.24742669747013 91.31356006173073 H 0.0 **** 0.06
36329 H 46.770947585912324 83.08258626929762 91.97402979829934 H 0.0 **** 0.06
36330 H 45.27281131065055 83.99189341047978 91.66243882693362 H 0.0 **** 0.06
36331 C 75.63932421955838 90.27183128148451 100.58406081053786 C 0.0 **** -0.24
36332 H 76.48310996983804 90.59882936499915 101.19198866154267 H 0.0 **** 0.06
36333 H 75.51811352809386 90.94992002179168 99.73886967219778 H 0.0 **** 0.06
36334 H 74.73242065115426 90.27697075084765 101.18857374154175 H 0.0 **** 0.06
36335 H 75.8257756728135 89.26277272997467 100.21645084768755 H 0.0 **** 0.06
36336 C 28.504933483983194 7.010830576559769 110.527188919333 C 0.0 **** -0.24
36337 H 28.66696594251303 6.214027581462661 111.25361985312546 H 0.0 **** 0.06
36338 H 27.648274898456208 6.762530851800374 109.9007316610514 H 0.0 **** 0.06
36339 H 29.3926202744897 7.1183744854513975 109.90254425883312 H 0.0 **** 0.06
36340 H 28.314632013963234 7.947367386037815 111.05127434923425 H 0.0 **** 0.06
36341 C 24.317819867787364 75.72187648176683 49.7984018774277 C 0.0 **** -0.24
36342 H 23.877919873065053 76.01953105281524 48.84692560246396 H 0.0 **** 0.06
36343 H 23.914111590196768 76.34658045154427 50.596099845946775 H 0.0 **** 0.06
36344 H 25.399767831761977 75.84356262115571 49.75264771955935 H 0.0 **** 0.06
36345 H 24.077592494067517 74.67669625269312 49.99831835847834 H 0.0 **** 0.06
36346 C 75.93648499411856 53.60450790697402 90.79450117130139 C 0.0 **** -0.24
36347 H 76.23842472952992 53.995876616885376 89.82306084124235 H 0.0 **** 0.06
36348 H 76.20354680830167 52.55002585410871 90.86052351259272 H 0.0 **** 0.06
36349 H 74.8584928935515 53.71499823989606 90.91052395519421 H 0.0 **** 0.06
36350 H 76.44536922520936 54.158540867176086 91.58386722060047 H 0.0 **** 0.06
36351 C 35.631429950652944 0.8040280972834211 100.67636897929046 C 0.0 **** -0.24
36352 H 35.4722902581635 -0.032702135573856594 101.35554008201385 H 0.0 **** 0.06
36353 H 35.49871530187186 1.7412937201874854 101.21677749596594 H 0.0 **** 0.06
36354 H 34.91161818133681 0.7497844586332434 99.85868497950025 H 0.0 **** 0.06
36355 H 36.643566567037254 0.7569868629037444 100.27337017655992 H 0.0 **** 0.06
36356 C 36.8686431723297 45.91457582889839 47.10764327338681 C 0.0 **** -0.24
36357 H 37.77521549207569 46.13137546987258 46.542226647310414 H 0.0 **** 0.06
36358 H 35.997244047466324 46.214042755539396 46.525245196022304 H 0.0 **** 0.06
36359 H 36.88669508007409 46.46740012386746 48.04707067225781 H 0.0 **** 0.06
36360 H 36.81786506472423 44.845593259773096 47.316001798920325 H 0.0 **** 0.06
36361 C 31.44401294124866 24.945919652261907 0.1820347232548727 C 0.0 **** -0.24
36362 H 32.1489334921794 25.694965529668835 -0.17883878138576392 H 0.0 **** 0.06
36363 H 31.25425568526333 25.107956015871125 1.2432273574513317 H 0.0 **** 0.06
36364 H 31.86472515953347 23.950585602004736 0.035956662099948744 H 0.0 **** 0.06
36365 H 30.50948821318343 25.02978896042002 -0.3720355066063803 H 0.0 **** 0.06
36366 C 82.04169070245018 91.00086106335334 14.029388927952951 C 0.0 **** -0.24
36367 H 82.64041711813329 90.12501956296589 13.781760847223765 H 0.0 **** 0.06
36368 H 81.21947839320299 90.70594102277968 14.683003950880774 H 0.0 **** 0.06
36369 H 81.64030341548423 91.43755383524913 13.11525052367719 H 0.0 **** 0.06
36370 H 82.66595225492205 91.73492789824476 14.539444631157494 H 0.0 **** 0.06
36371 C 86.27596969243928 111.13997914949958 82.24772097945086 C 0.0 **** -0.24
36372 H 86.62693595663217 110.38742504139607 82.95338828792356 H 0.0 **** 0.06
36373 H 86.69468658117518 112.11148600245761 82.51366851586516 H 0.0 **** 0.06
36374 H 85.18712237316942 111.19063127514941 82.28426336387184 H 0.0 **** 0.06
36375 H 86.59298941948083 110.86996969599771 81.24067641946922 H 0.0 **** 0.06
36376 C 39.4925688566414 66.4613718260521 81.2840176744732 C 0.0 **** -0.24
36377 H 40.296774193423374 67.19308320342256 81.2112262669852 H 0.0 **** 0.06
36378 H 39.4844280181336 66.02854298366324 82.2845996732344 H 0.0 **** 0.06
36379 H 39.651698127775404 65.67325492603334 80.54833908138016 H 0.0 **** 0.06
36380 H 38.53737508723299 66.95060619108946 81.09190567629321 H 0.0 **** 0.06
36381 C 78.68716148817111 20.35999972592458 45.287671722094785 C 0.0 **** -0.24
36382 H 78.56588632595009 21.2297082316241 45.93283820961199 H 0.0 **** 0.06
36383 H 79.10866878789727 20.672789263938686 44.33153586271902 H 0.0 **** 0.06
36384 H 77.71614529208131 19.892019715324842 45.12196500435533 H 0.0 **** 0.06
36385 H 79.3579455467557 19.645481692810726 45.764347811692915 H 0.0 **** 0.06
36386 C 8.165815522629131 48.91011333845134 86.0463231602726 C 0.0 **** -0.24
36387 H 8.825964259559115 48.658064505418196 85.21692435935654 H 0.0 **** 0.06
36388 H 8.731080828539461 49.445925918886616 86.80997589401022 H 0.0 **** 0.06
36389 H 7.753725270320544 47.996223101185564 86.47475713928253 H 0.0 **** 0.06
36390 H 7.353528627698594 49.541280469346674 85.68532113022019 H 0.0 **** 0.06
36391 C 23.424394539208404 74.08472710996858 3.729946806783545 C 0.0 **** -0.24
36392 H 22.680468459940332 74.87548098044826 3.633413440224672 H 0.0 **** 0.06
36393 H 24.405162150758063 74.4745561570727 3.4537481238892553 H 0.0 **** 0.06
36394 H 23.16297018006008 73.25782011229754 3.0702571325393535 H 0.0 **** 0.06
36395 H 23.44935519352894 73.7339636924165 4.761756087072399 H 0.0 **** 0.06
36396 C 11.040026099497766 108.31266927046022 20.911979396817713 C 0.0 **** -0.24
36397 H 11.50996516971037 107.41679180340293 20.50379152972573 H 0.0 **** 0.06
36398 H 10.771642294820879 108.98473534591318 20.09709615818511 H 0.0 **** 0.06
36399 H 11.737609691554894 108.814581350006 21.583051546514895 H 0.0 **** 0.06
36400 H 10.142559814011918 108.03334482188797 21.463138593305843 H 0.0 **** 0.06
36401 C 70.17326474270399 31.40242145665505 26.82061548186337 C 0.0 **** -0.24
36402 H 69.20899791250471 30.912187828925312 26.95166438633271 H 0.0 **** 0.06
36403 H 70.35852004389179 32.07085395187784 27.662974080770965 H 0.0 **** 0.06
36404 H 70.16606943016936 31.97805779754779 25.89474429693746 H 0.0 **** 0.06
36405 H 70.96022306028308 30.650019578280478 26.77462225526591 H 0.0 **** 0.06
36406 C 100.06501299221696 37.92228152924359 28.820381168738606 C 0.0 **** -0.24
36407 H 99.75760870690232 38.58117872268784 29.63252000525432 H 0.0 **** 0.06
36408 H 99.49707043847809 38.16463261613319 27.92253120480052 H 0.0 **** 0.06
36409 H 99.87728770538692 36.886484248590904 29.103182511137902 H 0.0 **** 0.06
36410 H 101.12882297841497 38.05825752377177 28.625824678331355 H 0.0 **** 0.06
36411 C 67.08583171061235 92.83158674925744 91.37059466062735 C 0.0 **** -0.24
36412 H 66.91783922678107 91.82397300210403 91.75152441880073 H 0.0 **** 0.06
36413 H 68.04517003782902 93.20049781461887 91.73385352888167 H 0.0 **** 0.06
36414 H 66.28826189094224 93.48746398116816 91.7170621608455 H 0.0 **** 0.06
36415 H 67.09281154843865 92.81134926099764 90.28096210969142 H 0.0 **** 0.06
36416 C 92.32274282422571 21.87694569302596 40.84808548196713 C 0.0 **** -0.24
36417 H 92.31844992033072 22.520757969272125 39.96950502578164 H 0.0 **** 0.06
36418 H 92.41185160818341 20.836702772506072 40.53530334066102 H 0.0 **** 0.06
36419 H 91.39309880522976 22.01150766219402 41.401153715821636 H 0.0 **** 0.06
36420 H 93.1664974135357 22.13789379831033 41.48639232991417 H 0.0 **** 0.06
36421 C 25.723009917140445 9.53076087338917 62.26486590193979 C 0.0 **** -0.24
36422 H 25.24482015007061 10.320643442012795 61.68627500905814 H 0.0 **** 0.06
36423 H 25.14082128254961 9.337045804517174 63.16709059142587 H 0.0 **** 0.06
36424 H 26.72996140708547 9.843074039564186 62.5426636783781 H 0.0 **** 0.06
36425 H 25.776559955512937 8.622016317214019 61.66481827803275 H 0.0 **** 0.06
36426 C 45.394956982244906 47.2985473693945 76.02026788038657 C 0.0 **** -0.24
36427 H 44.839463643889275 47.95661278020154 75.35107842173872 H 0.0 **** 0.06
36428 H 46.09747099650255 46.7012028100941 75.4389926151004 H 0.0 **** 0.06
36429 H 44.70000881381142 46.639485498393896 76.54093466490013 H 0.0 **** 0.06
36430 H 45.941548267013246 47.89805146955047 76.74692535334546 H 0.0 **** 0.06
36431 C 35.384665426242464 84.69058539056911 29.661766403145805 C 0.0 **** -0.24
36432 H 34.44720689006912 84.13841786983065 29.593936292227596 H 0.0 **** 0.06
36433 H 35.81221268191841 84.55859751114252 30.656148113136794 H 0.0 **** 0.06
36434 H 35.19574770451774 85.74948536924171 29.484703332231533 H 0.0 **** 0.06
36435 H 36.08266955695143 84.31582149146621 28.91342649465807 H 0.0 **** 0.06
36436 C 32.50955443809028 71.51765001320288 72.1755666785005 C 0.0 **** -0.24
36437 H 31.49331543152988 71.91177484582911 72.15137330631822 H 0.0 **** 0.06
36438 H 33.21224406997172 72.31321729201665 71.92754776365769 H 0.0 **** 0.06
36439 H 32.602823406654096 70.70985236193314 71.44932479343424 H 0.0 **** 0.06
36440 H 32.72757795798191 71.13667579772178 73.17377599425001 H 0.0 **** 0.06
36441 C 58.89354737992193 102.40332099434559 12.696825560760601 C 0.0 **** -0.24
36442 H 58.9062323711706 101.31394417111596 12.650331773309972 H 0.0 **** 0.06
36443 H 59.51317412194561 102.80785700350387 11.89676701063928 H 0.0 **** 0.06
36444 H 59.28335873144687 102.72967574961066 13.660435446218344 H 0.0 **** 0.06
36445 H 57.86992424187133 102.75903232313073 12.579994465481832 H 0.0 **** 0.06
36446 C 69.1808453477629 109.37649911717475 100.13879228085466 C 0.0 **** -0.24
36447 H 68.71882072740831 108.38886082330067 100.14769676714104 H 0.0 **** 0.06
36448 H 68.67825304504035 110.01902428525067 100.86179696919154 H 0.0 **** 0.06
36449 H 69.0930362383244 109.80958295112515 99.14218736166848 H 0.0 **** 0.06
36450 H 70.23437220416344 109.28587664753795 100.40435800146147 H 0.0 **** 0.06
36451 C 92.8490265435465 81.93755610625448 13.497094261632014 C 0.0 **** -0.24
36452 H 93.8727612507985 82.1372897014968 13.180920072483872 H 0.0 **** 0.06
36453 H 92.53177096669822 80.96969902133742 13.107240411387409 H 0.0 **** 0.06
36454 H 92.19128510014298 82.71722105447719 13.11339759706857 H 0.0 **** 0.06
36455 H 92.80174429721993 81.924164899007 14.586140391689284 H 0.0 **** 0.06
36456 C 52.573371457135096 96.07844888750148 52.04525872816424 C 0.0 **** -0.24
36457 H 52.472881710948116 95.4559415515105 52.93490746400005 H 0.0 **** 0.06
36458 H 53.63048559688761 96.22981822244998 51.82641307325463 H 0.0 **** 0.06
36459 H 52.09603937015984 97.04272679963506 52.22211919607628 H 0.0 **** 0.06
36460 H 52.09428955117764 95.58414006979362 51.201143444116894 H 0.0 **** 0.06
36461 C 62.712019712473875 108.51019044887482 45.06018581620111 C 0.0 **** -0.24
36462 H 61.81257003731855 109.06761956841285 44.79715636023154 H 0.0 **** 0.06
36463 H 62.53718955951558 107.44564986848906 44.904531852202624 H 0.0 **** 0.06
36464 H 62.95791218119638 108.69057257765701 46.10664201183481 H 0.0 **** 0.06
36465 H 63.539181215712404 108.83924484816782 44.43065465880278 H 0.0 **** 0.06
36466 C 21.707860552416747 97.28479626242088 51.593351033338706 C 0.0 **** -0.24
36467 H 22.290286020318717 97.8178531772246 50.84193152079507 H 0.0 **** 0.06
36468 H 20.876489592467493 96.769243477988 51.11059524394403 H 0.0 **** 0.06
36469 H 21.319990498899273 97.99534064680984 52.32320915915528 H 0.0 **** 0.06
36470 H 22.343289676865567 96.5569912275171 52.09753158041582 H 0.0 **** 0.06
36471 C 76.72460339586783 8.03510271484123 9.111994018165092 C 0.0 **** -0.24
36472 H 76.16206661169485 8.060930738016879 10.044905392146319 H 0.0 **** 0.06
36473 H 76.2569531898614 7.327699007524529 8.425511827376539 H 0.0 **** 0.06
36474 H 77.74952475708696 7.7217294561810945 9.31386989223671 H 0.0 **** 0.06
36475 H 76.73028418969821 9.0277133866675 8.66308857159305 H 0.0 **** 0.06
36476 C 18.239365060104888 23.92266616524259 27.850834370819513 C 0.0 **** -0.24
36477 H 18.72561426175423 22.949687307903787 27.78515934393488 H 0.0 **** 0.06
36478 H 18.561356617864533 24.547218358579386 27.017253293459845 H 0.0 **** 0.06
36479 H 18.512255064655903 24.402454108298755 28.790696573148068 H 0.0 **** 0.06
36480 H 17.157490473589974 23.791936663862387 27.810010002944693 H 0.0 **** 0.06
36481 C 108.24037011932586 90.43087442805404 16.41345019932541 C 0.0 **** -0.24
36482 H 107.64948331165988 90.66658487188641 15.52904040292296 H 0.0 **** 0.06
36483 H 108.81082192400288 91.3093399087985 16.7150451692834 H 0.0 **** 0.06
36484 H 108.92398041169002 89.61343064728305 16.18648993107709 H 0.0 **** 0.06
36485 H 107.5748883115678 90.13327059050283 17.22493428011404 H 0.0 **** 0.06
36486 C 57.73211294974601 52.45037515543044 99.63609553553258 C 0.0 **** -0.24
36487 H 58.582422195122405 52.085063288199514 99.06089576765794 H 0.0 **** 0.06
36488 H 57.46441802118218 51.71360290644743 100.39406619441095 H 0.0 **** 0.06
36489 H 56.88516022521742 52.60977622536656 98.96944291403523 H 0.0 **** 0.06
36490 H 57.996985105755414 53.390118265219655 100.12024633239903 H 0.0 **** 0.06
36491 C 62.73917382866315 12.560321897316996 8.599785191615132 C 0.0 **** -0.24
36492 H 62.5280728919706 13.283894845429263 7.812476506385968 H 0.0 **** 0.06
36493 H 63.33515961632046 11.742801261855558 8.192213812369335 H 0.0 **** 0.06
36494 H 61.8026162941705 12.1669217129134 8.992816451624513 H 0.0 **** 0.06
36495 H 63.29351612480736 13.049031480088793 9.401773359251345 H 0.0 **** 0.06
36496 C 8.618924723928288 3.911157452312665 31.53247409826352 C 0.0 **** -0.24
36497 H 9.474242471886924 3.378348884340113 31.11599598925764 H 0.0 **** 0.06
36498 H 8.931200262801852 4.907359799407317 31.847304711617397 H 0.0 **** 0.06
36499 H 8.23286303094251 3.362624166615504 32.39131457323671 H 0.0 **** 0.06
36500 H 7.840320700231217 3.9969516038430015 30.77524529275061 H 0.0 **** 0.06
36501 C 90.30169898608386 49.700384414469426 82.29405859176731 C 0.0 **** -0.24
36502 H 89.43617417944614 50.34702431821976 82.15225241066761 H 0.0 **** 0.06
36503 H 90.00076199810619 48.80597161579454 82.83909715579884 H 0.0 **** 0.06
36504 H 91.06410035746205 50.233469312769465 82.8614041524593 H 0.0 **** 0.06
36505 H 90.70556808984986 49.41493126296231 81.32208652206876 H 0.0 **** 0.06
36506 C 28.319439079627102 52.98373152307406 48.658187293832874 C 0.0 **** -0.24
36507 H 28.12818317819 53.32254266303387 47.63987663685181 H 0.0 **** 0.06
36508 H 29.34251655512648 53.23412051302372 48.93831442284843 H 0.0 **** 0.06
36509 H 28.18185732460853 51.90366821950041 48.712463699242385 H 0.0 **** 0.06
36510 H 27.62471055274858 53.473250213842825 49.34037575004137 H 0.0 **** 0.06
36511 C 15.453717989170883 93.63766050248137 96.97304303231269 C 0.0 **** -0.24
36512 H 15.36316641183413 94.02273985547333 95.95695999472676 H 0.0 **** 0.06
36513 H 15.912630374242013 94.3943228214622 97.60857893810052 H 0.0 **** 0.06
36514 H 16.075399406982257 92.74215981761233 96.96764424519091 H 0.0 **** 0.06
36515 H 14.464610201414942 93.39029272452353 97.3572985512784 H 0.0 **** 0.06
36516 C 45.31471369476798 54.245263919898605 65.99374676699145 C 0.0 **** -0.24
36517 H 45.32583915335373 54.10262040323778 67.07484551634673 H 0.0 **** 0.06
36518 H 45.193792930373704 55.304596199648564 65.76860981984706 H 0.0 **** 0.06
36519 H 44.485765627499646 53.683996001615725 65.563139304396 H 0.0 **** 0.06
36520 H 46.25349262608101 53.887880933149496 65.57087220596432 H 0.0 **** 0.06
36521 C 24.190048757143103 73.9827405997035 29.66354217265397 C 0.0 **** -0.24
36522 H 23.674057690221986 74.94252399011867 29.658500804382683 H 0.0 **** 0.06
36523 H 25.264414580257835 74.14823650806642 29.575959975370054 H 0.0 **** 0.06
36524 H 23.845918688549247 73.38121481460684 28.822901018944016 H 0.0 **** 0.06
36525 H 23.97688095915116 73.46117682548206 30.59659313923442 H 0.0 **** 0.06
36526 C 57.69679597303146 54.96171916331702 85.13169736048872 C 0.0 **** -0.24
36527 H 58.00755839142662 55.161210142581005 84.10644206297727 H 0.0 **** 0.06
36528 H 57.168356179263135 54.009617117053885 85.1713259238222 H 0.0 **** 0.06
36529 H 57.037323862059274 55.75920526223479 85.47262079859382 H 0.0 **** 0.06
36530 H 58.57544679042466 54.91785744181598 85.77508936303948 H 0.0 **** 0.06
36531 C 89.74365944304307 111.03195926559079 100.27465102304774 C 0.0 **** -0.24
36532 H 89.29938864812269 110.0471811695613 100.42111597180457 H 0.0 **** 0.06
36533 H 89.17599186749487 111.77321028028456 100.83844613611083 H 0.0 **** 0.06
36534 H 89.72178712444841 111.28590839704128 99.21527725464833 H 0.0 **** 0.06
36535 H 90.77493869970883 111.02061726344266 100.6250861110205 H 0.0 **** 0.06
36536 C 86.68574650143302 43.76860391849198 101.46723855160204 C 0.0 **** -0.24
36537 H 86.30086040349926 44.09283830554079 102.43418278563922 H 0.0 **** 0.06
36538 H 86.38935407835748 42.73573285493791 101.28602802867539 H 0.0 **** 0.06
36539 H 87.77336010037135 43.839996869371696 101.46753835203663 H 0.0 **** 0.06
36540 H 86.27989584899086 44.407326796952205 100.68309654188911 H 0.0 **** 0.06
36541 C 104.01766425940025 75.81454657893903 90.3258327100794 C 0.0 **** -0.24
36542 H 103.46910137054644 74.8768714803719 90.40469625194223 H 0.0 **** 0.06
36543 H 103.92877510865173 76.2034235038688 89.31092093729919 H 0.0 **** 0.06
36544 H 105.06848331035798 75.6414530625396 90.55854360302504 H 0.0 **** 0.06
36545 H 103.60463125458048 76.53778968055877 91.02892056896411 H 0.0 **** 0.06
36546 C 69.52136761711455 110.99081043377899 79.35378002939791 C 0.0 **** -0.24
36547 H 69.51586362810468 111.14908640260401 80.43226360345301 H 0.0 **** 0.06
36548 H 69.80039015491457 109.95821245397173 79.13984236065915 H 0.0 **** 0.06
36549 H 70.24080082724049 111.6653107168411 78.89072436432974 H 0.0 **** 0.06
36550 H 68.5270324147825 111.18864430166272 78.95265699090743 H 0.0 **** 0.06
36551 C 69.90770145414078 89.74173284826577 41.24235050687179 C 0.0 **** -0.24
36552 H 70.17914288501521 90.78788564665024 41.098989794544366 H 0.0 **** 0.06
36553 H 69.11334782039603 89.67084172379532 41.98611808195437 H 0.0 **** 0.06
36554 H 70.7789069127665 89.18486751058151 41.58661117338022 H 0.0 **** 0.06
36555 H 69.55961642051264 89.32427187826818 40.29796896760939 H 0.0 **** 0.06
36556 C 83.29289734096415 101.42366882753663 37.180906672785056 C 0.0 **** -0.24
36557 H 83.24729858896558 102.48518266104787 37.423143116251 H 0.0 **** 0.06
36558 H 83.8536667144619 100.89866642543893 37.95511830802286 H 0.0 **** 0.06
36559 H 83.78921566715536 101.29156875314854 36.219631444864234 H 0.0 **** 0.06
36560 H 82.28249788152795 101.01991533542855 37.12635054117837 H 0.0 **** 0.06
36561 C 99.98905805340166 84.4690461532962 57.0447568023 C 0.0 **** -0.24
36562 H 100.55105161198912 84.65457131680586 56.12985790198968 H 0.0 **** 0.06
36563 H 100.22949306385496 85.2367464288954 57.78074642511395 H 0.0 **** 0.06
36564 H 100.25518811465449 83.48954378968722 57.442207813624286 H 0.0 **** 0.06
36565 H 98.92178128994468 84.49472619951882 56.826240898347834 H 0.0 **** 0.06
36566 C 49.712726510971095 70.20442058184571 44.101217864765204 C 0.0 **** -0.24
36567 H 49.81216746582578 71.20818184582993 44.51388139504621 H 0.0 **** 0.06
36568 H 50.349802146089075 70.10912362258827 43.22146132987688 H 0.0 **** 0.06
36569 H 48.67484787016849 70.02803429728795 43.82066460143126 H 0.0 **** 0.06
36570 H 50.01546151870241 69.47221313306616 44.85088862719261 H 0.0 **** 0.06
36571 C 8.888581035394452 67.13414878968848 68.18166245533774 C 0.0 **** -0.24
36572 H 9.202151759908816 66.15799270860629 67.80926321111406 H 0.0 **** 0.06
36573 H 8.365905868286404 67.00952399224414 69.13107113046684 H 0.0 **** 0.06
36574 H 8.221688389937981 67.60173005313291 67.45705610018587 H 0.0 **** 0.06
36575 H 9.765469039588027 67.76448876096958 68.32943030726287 H 0.0 **** 0.06
36576 C 25.442115281000184 11.011114099412438 24.12377853153106 C 0.0 **** -0.24
36577 H 25.621308151930748 11.611850431667776 25.015248184234245 H 0.0 **** 0.06
36578 H 26.333580917129552 11.01841177426239 23.495686803281615 H 0.0 **** 0.06
36579 H 24.602138844673334 11.428408856113734 23.568244487469915 H 0.0 **** 0.06
36580 H 25.212150084220127 9.986401016119615 24.41626189105683 H 0.0 **** 0.06
36581 C 111.74596471573349 61.58901217841625 10.064303312204913 C 0.0 **** -0.24
36582 H 112.0365439751356 61.08344877666267 10.985351489633388 H 0.0 **** 0.06
36583 H 111.40089320082295 60.85261384623502 9.33947819004328 H 0.0 **** 0.06
36584 H 112.60340263405118 62.125231497213484 9.65866628110956 H 0.0 **** 0.06
36585 H 110.94299917027352 62.29574384982066 10.275722596073877 H 0.0 **** 0.06
36586 C 21.330379140601394 108.60151777867442 20.79409304564659 C 0.0 **** -0.24
36587 H 21.737722428398115 107.62610357748802 21.05957366057833 H 0.0 **** 0.06
36588 H 20.8456371450971 109.0416325897545 21.665607558926276 H 0.0 **** 0.06
36589 H 20.601865405983006 108.48449810432545 19.992204345727096 H 0.0 **** 0.06
36590 H 22.13799699067954 109.25324563674567 20.459848177744714 H 0.0 **** 0.06
36591 C 18.894016849146595 21.775292734684598 77.47671117711883 C 0.0 **** -0.24
36592 H 19.86879251356197 22.26300475028674 77.46585818943078 H 0.0 **** 0.06
36593 H 18.134608032862303 22.473303937112604 77.12258539415262 H 0.0 **** 0.06
36594 H 18.65525324351964 21.461611059397114 78.49221305030147 H 0.0 **** 0.06
36595 H 18.91839229627709 20.902928347332022 76.8227328357612 H 0.0 **** 0.06
36596 C 107.27220913853216 21.475797077494917 9.095630648835705 C 0.0 **** -0.24
36597 H 106.45172422485578 20.7718177946131 8.95220772073739 H 0.0 **** 0.06
36598 H 107.01283443980265 22.43283401748721 8.642371913398607 H 0.0 **** 0.06
36599 H 108.17424322514037 21.08310017551385 8.626184114921552 H 0.0 **** 0.06
36600 H 107.44877575581893 21.614656445371395 10.162657240077952 H 0.0 **** 0.06
36601 C 43.761424492543085 8.128865256885874 6.709264496204412 C 0.0 **** -0.24
36602 H 43.46340877822365 7.0813935801169805 6.765006470118152 H 0.0 **** 0.06
36603 H 44.25591894123704 8.415068690500092 7.637446168252325 H 0.0 **** 0.06
36604 H 42.878342236657716 8.749985724490301 6.561750283031628 H 0.0 **** 0.06
36605 H 44.447224317405755 8.267254420563233 5.873366515146927 H 0.0 **** 0.06
36606 C 71.13105813692553 71.40336139703155 60.986158292017954 C 0.0 **** -0.24
36607 H 71.33227171444253 72.47373237901735 60.93173857284139 H 0.0 **** 0.06
36608 H 71.92727784276417 70.91170359267284 61.54412613322949 H 0.0 **** 0.06
36609 H 71.08528493126568 70.99145671984462 59.97783653717145 H 0.0 **** 0.06
36610 H 70.17897097691696 71.23872629056615 61.48917283042679 H 0.0 **** 0.06
36611 C 87.41121012081916 65.66082574166691 107.41573266303004 C 0.0 **** -0.24
36612 H 87.77803496219721 64.77047042264871 107.92576040022914 H 0.0 **** 0.06
36613 H 86.60743343844214 65.38220177843235 106.73244336720933 H 0.0 **** 0.06
36614 H 88.22396497064273 66.11782529359064 106.85291986632598 H 0.0 **** 0.06
36615 H 87.03334516724439 66.37068640934567 108.15129862102594 H 0.0 **** 0.06
36616 C 31.162099485020377 5.9358435412027575 59.55983171108747 C 0.0 **** -0.24
36617 H 30.580811708583184 5.135065435020067 59.101642459050254 H 0.0 **** 0.06
36618 H 32.08448010775092 6.081162262601879 58.99840603569015 H 0.0 **** 0.06
36619 H 31.40064486480432 5.667138180862253 60.58962295421199 H 0.0 **** 0.06
36620 H 30.580274075920016 6.857143001700194 59.54973972712014 H 0.0 **** 0.06
36621 C 94.75081359384353 106.11392014040416 3.4361021826267972 C 0.0 **** -0.24
36622 H 94.05888745855043 106.9561542089923 3.4153558066246035 H 0.0 **** 0.06
36623 H 95.72971844459676 106.43921541700809 3.0812631028610014 H 0.0 **** 0.06
36624 H 94.3756108335599 105.32057331000311 2.790219808008999 H 0.0 **** 0.06
36625 H 94.83866801225531 105.74157320647919 4.45634759621862 H 0.0 **** 0.06
36626 C 7.100738993759478 45.15361404028917 17.660296341560468 C 0.0 **** -0.24
36627 H 7.9203620119922675 44.57293221944559 17.23679647937405 H 0.0 **** 0.06
36628 H 7.379895414862915 46.20721923588819 17.688778177156337 H 0.0 **** 0.06
36629 H 6.893025019988158 44.80416597330756 18.671202020391036 H 0.0 **** 0.06
36630 H 6.211270177149174 45.030090514734894 17.0425516143346 H 0.0 **** 0.06
36631 C 21.00250487819187 36.40756467534507 14.393097596391158 C 0.0 **** -0.24
36632 H 21.617336825874332 36.73317043713891 13.55375262656787 H 0.0 **** 0.06
36633 H 21.606013414843233 36.396104930703316 15.301339621214424 H 0.0 **** 0.06
36634 H 20.61991637841041 35.40588979342253 14.196807328692671 H 0.0 **** 0.06
36635 H 20.167014914139187 37.09647530277215 14.520341843769813 H 0.0 **** 0.06
36636 C 16.907770300631462 109.60448292872498 100.58340114722313 C 0.0 **** -0.24
36637 H 17.142005258425222 108.59986210931712 100.2320489682399 H 0.0 **** 0.06
36638 H 16.18538338842439 109.54455072959468 101.39838197941268 H 0.0 **** 0.06
36639 H 16.48435802156657 110.18598808363565 99.7647106302947 H 0.0 **** 0.06
36640 H 17.817973571061714 110.08604455691108 100.93985557122679 H 0.0 **** 0.06
36641 C 50.11794420127265 35.00501982498756 63.74565718312493 C 0.0 **** -0.24
36642 H 50.250759925356334 36.06518965544615 63.96283992068709 H 0.0 **** 0.06
36643 H 51.086425417410624 34.5046157349658 63.77277409112901 H 0.0 **** 0.06
36644 H 49.67644597206092 34.89001247598495 62.756166928516734 H 0.0 **** 0.06
36645 H 49.45908266415944 34.561725113249594 64.4925739692078 H 0.0 **** 0.06
36646 C 25.722486535751763 71.49008517831197 40.46179246914607 C 0.0 **** -0.24
36647 H 24.864907654367567 72.09034088674849 40.1568187431543 H 0.0 **** 0.06
36648 H 26.193974213347403 71.05671267238489 39.579061422841534 H 0.0 **** 0.06
36649 H 25.38940931259373 70.69185735970501 41.12430076465782 H 0.0 **** 0.06
36650 H 26.440712549457757 72.12132171549416 40.98473051360399 H 0.0 **** 0.06
36651 C 30.72166983607849 102.1899348208967 33.108280948545456 C 0.0 **** -0.24
36652 H 30.515627601328617 101.119426931184 33.122973691098764 H 0.0 **** 0.06
36653 H 30.27465200019472 102.63254934223195 32.218072076770085 H 0.0 **** 0.06
36654 H 31.799249663331636 102.35164015888449 33.09462606480895 H 0.0 **** 0.06
36655 H 30.2953845489059 102.65335958360706 33.9979498345385 H 0.0 **** 0.06
36656 C 45.04470239463977 94.93171894162424 46.55884232698955 C 0.0 **** -0.24
36657 H 44.25303161963666 95.4210954489576 45.99204044502483 H 0.0 **** 0.06
36658 H 44.622808600851215 94.47827067867601 47.45562751533194 H 0.0 **** 0.06
36659 H 45.79639209116226 95.66915629208938 46.84263312480431 H 0.0 **** 0.06
36660 H 45.50757926552268 94.15996785235791 45.94352235383792 H 0.0 **** 0.06
36661 C 104.27292636333442 92.13064485265036 76.24599305722774 C 0.0 **** -0.24
36662 H 103.76277107925017 91.16853573501214 76.24301012903828 H 0.0 **** 0.06
36663 H 103.9230520044637 92.73007381859722 75.40508266942678 H 0.0 **** 0.06
36664 H 105.34757160864635 91.97244310721678 76.1577707820793 H 0.0 **** 0.06
36665 H 104.05911802234792 92.65302482654678 77.17843154964945 H 0.0 **** 0.06
36666 C 102.17391733713657 86.49443245785932 100.79109540230218 C 0.0 **** -0.24
36667 H 101.1943711984242 86.78206489362677 100.40844887424478 H 0.0 **** 0.06
36668 H 102.60645720070869 87.32960598242497 101.34360960181917 H 0.0 **** 0.06
36669 H 102.82592123426429 86.23213275892121 99.95890607168033 H 0.0 **** 0.06
36670 H 102.06757316361157 85.63632231179014 101.45461953425578 H 0.0 **** 0.06
36671 C 63.314657632011766 94.73963727977198 81.6245878832155 C 0.0 **** -0.24
36672 H 62.555341621842494 94.02549967763952 81.30572728892025 H 0.0 **** 0.06
36673 H 63.78467989386231 94.38456872803712 82.54073999179735 H 0.0 **** 0.06
36674 H 62.847403112164066 95.70833472185197 81.80622201898433 H 0.0 **** 0.06
36675 H 64.06820218768226 94.84076140089749 80.8435175241546 H 0.0 **** 0.06
36676 C 101.66044550139105 30.874533090625462 42.63746617756516 C 0.0 **** -0.24
36677 H 100.9295668266688 30.06798061520695 42.698128136530215 H 0.0 **** 0.06
36678 H 101.18249226252726 31.768917965533547 42.23726521476141 H 0.0 **** 0.06
36679 H 102.47892040486323 30.574672841491548 41.98286090282187 H 0.0 **** 0.06
36680 H 102.05079145578065 31.08586060261098 43.63319461999782 H 0.0 **** 0.06
36681 C 68.00155492210544 42.5064154054912 77.09775335509246 C 0.0 **** -0.24
36682 H 67.81131439387013 41.949396616850294 76.18076537463094 H 0.0 **** 0.06
36683 H 67.36684616856974 43.39264572853182 77.1218166914012 H 0.0 **** 0.06
36684 H 69.04775021562952 42.807848408171466 77.12891171540895 H 0.0 **** 0.06
36685 H 67.77817714714553 41.87548965919768 77.95890580619357 H 0.0 **** 0.06
36686 C 66.69106594292842 13.633406515271446 7.5628623709494605 C 0.0 **** -0.24
36687 H 67.05540177305889 12.958269031804377 8.336726785521932 H 0.0 **** 0.06
36688 H 66.93510003477476 13.22713481097918 6.5816529065091345 H 0.0 **** 0.06
36689 H 67.1638454437171 14.609000536620528 7.680566656081936 H 0.0 **** 0.06
36690 H 65.60982265580179 13.740822533954116 7.653698413215977 H 0.0 **** 0.06
36691 C 92.49167688097555 78.09895728625366 3.2024247563711583 C 0.0 **** -0.24
36692 H 91.77805164749611 78.47174336778724 3.936661032805347 H 0.0 **** 0.06
36693 H 92.11421561187797 77.17521454546304 2.7644159641839963 H 0.0 **** 0.06
36694 H 93.44730245720802 77.9067143297018 3.6895425624948075 H 0.0 **** 0.06
36695 H 92.62738215016884 78.84511865347702 2.418668569850695 H 0.0 **** 0.06
36696 C 59.34515471263563 101.88920005963865 74.45648680698355 C 0.0 **** -0.24
36697 H 58.31867014309759 101.73621707339004 74.12420682103857 H 0.0 **** 0.06
36698 H 59.95991474444443 102.19321752018686 73.60939480111779 H 0.0 **** 0.06
36699 H 59.734086103679715 100.95977931883198 74.87266568710936 H 0.0 **** 0.06
36700 H 59.36800105508209 102.66589882239629 75.22006679264877 H 0.0 **** 0.06
36701 C 91.51757370490384 23.041254275215383 80.47880983808409 C 0.0 **** -0.24
36702 H 91.06342317530076 22.04973377113552 80.48049742790067 H 0.0 **** 0.06
36703 H 91.01652437236669 23.668305459995587 79.74039474680688 H 0.0 **** 0.06
36704 H 92.57455813762672 22.955678986280592 80.22634760631115 H 0.0 **** 0.06
36705 H 91.41466692768776 23.488541501488985 81.46653733981918 H 0.0 **** 0.06
36706 C 18.07215510539092 28.665263101411853 67.74274913972931 C 0.0 **** -0.24
36707 H 17.14775146055436 28.226337892346862 67.36679704770589 H 0.0 **** 0.06
36708 H 18.897578542864608 28.39257582851249 67.0845225544825 H 0.0 **** 0.06
36709 H 18.269248126965522 28.28980931771457 68.74728944892374 H 0.0 **** 0.06
36710 H 17.97381908415221 29.749890022294295 67.77237673686778 H 0.0 **** 0.06
36711 C 62.783309053709814 91.85761138433094 17.20992006560158 C 0.0 **** -0.24
36712 H 62.032922847333 91.16313203070564 17.587730017088376 H 0.0 **** 0.06
36713 H 62.3383499900815 92.84654172526362 17.09829291436253 H 0.0 **** 0.06
36714 H 63.144019858362384 91.51061333339044 16.241822220951263 H 0.0 **** 0.06
36715 H 63.615616497319195 91.90965700283945 17.911257301268193 H 0.0 **** 0.06
36716 C 8.803344890064466 88.60064467232783 30.595257676523858 C 0.0 **** -0.24
36717 H 8.360705894384125 88.25706580312195 31.530396537946046 H 0.0 **** 0.06
36718 H 9.77678513013457 89.04871966516535 30.79618633318688 H 0.0 **** 0.06
36719 H 8.149363186198485 89.34229811133108 30.135747565781145 H 0.0 **** 0.06
36720 H 8.925326346301233 87.75522643076167 29.918866624743288 H 0.0 **** 0.06
36721 C 13.553175940817226 101.38099183704216 89.46411603430573 C 0.0 **** -0.24
36722 H 12.76608089274822 102.0417727980846 89.09905936601976 H 0.0 **** 0.06
36723 H 13.78260029243313 101.62872433650338 90.4999950840662 H 0.0 **** 0.06
36724 H 14.446079375292442 101.50805232908883 88.85276635954008 H 0.0 **** 0.06
36725 H 13.214978309724131 100.34607192159876 89.4033083113045 H 0.0 **** 0.06
36726 C 37.74194805831257 93.43567449967509 55.62090574828906 C 0.0 **** -0.24
36727 H 38.13070090904998 92.79160448905117 56.409815404244 H 0.0 **** 0.06
36728 H 38.57094438412852 93.82250371447972 55.02761856394389 H 0.0 **** 0.06
36729 H 37.196529143640845 94.26704018374764 56.06756075983816 H 0.0 **** 0.06
36730 H 37.07176318936857 92.86255443494497 54.980949524010725 H 0.0 **** 0.06
36731 C 45.94294857173105 27.277588017216942 42.5359372554219 C 0.0 **** -0.24
36732 H 46.46646188384625 27.266988812346085 41.57947402584642 H 0.0 **** 0.06
36733 H 45.51893197047943 28.267752722243415 42.70606728949733 H 0.0 **** 0.06
36734 H 46.6438639033056 27.038868881106225 43.335563566437415 H 0.0 **** 0.06
36735 H 45.14383736525295 26.536863324192268 42.51976428067324 H 0.0 **** 0.06
36736 C 96.37434948340376 71.70918285158314 86.34570856304157 C 0.0 **** -0.24
36737 H 96.1472150245383 72.26717094140713 87.25470728816035 H 0.0 **** 0.06
36738 H 95.84210356939536 70.75775184548968 86.36237457779572 H 0.0 **** 0.06
36739 H 97.44670486336082 71.52548051232986 86.29165585800237 H 0.0 **** 0.06
36740 H 96.0597024824624 72.28679785117117 85.47673931921145 H 0.0 **** 0.06
36741 C 39.51146670442327 13.313319554418143 20.06185774364403 C 0.0 **** -0.24
36742 H 39.35988621335615 14.380369483412295 20.2264245227021 H 0.0 **** 0.06
36743 H 38.55911293469293 12.792012053785655 20.157863829282913 H 0.0 **** 0.06
36744 H 40.21391952107453 12.927894291888563 20.80151905341977 H 0.0 **** 0.06
36745 H 39.91426638356421 13.154665670779053 19.06091927344965 H 0.0 **** 0.06
36746 C 95.78745705539029 87.77967836715877 64.6185238582209 C 0.0 **** -0.24
36747 H 94.99303155367903 87.94761730706225 65.3454330700693 H 0.0 **** 0.06
36748 H 95.34983223186731 87.49962823933319 63.66022336270504 H 0.0 **** 0.06
36749 H 96.43818463117663 86.97922089818022 64.97006309166784 H 0.0 **** 0.06
36750 H 96.3691859743812 88.69404897268927 64.49963618264007 H 0.0 **** 0.06
36751 C 46.45027288765732 22.045113897694762 55.794128838056594 C 0.0 **** -0.24
36752 H 45.83155457320814 21.819035652334946 54.92602191390429 H 0.0 **** 0.06
36753 H 46.235166582922744 21.332217897134 56.589629884560935 H 0.0 **** 0.06
36754 H 46.233068261575724 23.054999933410386 56.141738852841996 H 0.0 **** 0.06
36755 H 47.502762620625745 21.974547466827232 55.51780260796656 H 0.0 **** 0.06
36756 C 102.16785709098866 38.70587605710398 76.76402097116141 C 0.0 **** -0.24
36757 H 102.48860446240016 38.26434703563592 75.81986065500723 H 0.0 **** 0.06
36758 H 102.684334590721 38.213724891218476 77.58851575514205 H 0.0 **** 0.06
36759 H 101.09205638508547 38.57469379534331 76.87848240498045 H 0.0 **** 0.06
36760 H 102.40692483812614 39.769138550634295 76.76774235310319 H 0.0 **** 0.06
36761 C 95.77083164737763 1.6579555373457993 53.155469454468715 C 0.0 **** -0.24
36762 H 96.34449675890559 1.2444836278811806 53.98467249517023 H 0.0 **** 0.06
36763 H 94.9401144730407 0.9918740241125761 52.920738062568574 H 0.0 **** 0.06
36764 H 96.41548921237691 1.7568288865410011 52.28149454854946 H 0.0 **** 0.06
36765 H 95.38334886511814 2.637274331453881 53.43460943252646 H 0.0 **** 0.06
36766 C 94.81602580297329 59.11682463197249 60.74655663737041 C 0.0 **** -0.24
36767 H 94.5515230426335 59.87021221739002 61.48913247525744 H 0.0 **** 0.06
36768 H 95.83043580038986 58.76355917070424 60.93301920333713 H 0.0 **** 0.06
36769 H 94.760875727692 59.55424479115868 59.75025879034718 H 0.0 **** 0.06
36770 H 94.12158603179745 58.27970695805956 60.8159884648641 H 0.0 **** 0.06
36771 C 24.850045441677338 108.78353206078972 73.26242213327714 C 0.0 **** -0.24
36772 H 25.60479857881583 108.06277480968942 73.57907517837666 H 0.0 **** 0.06
36773 H 25.120837436339002 109.18884325913208 72.28757090943174 H 0.0 **** 0.06
36774 H 24.793612193763437 109.5921163415338 73.9902779317936 H 0.0 **** 0.06
36775 H 23.88187676236356 108.28768286978644 73.19363718478954 H 0.0 **** 0.06
36776 C 83.83092824369797 59.3245883559834 51.26421887158074 C 0.0 **** -0.24
36777 H 82.92723839400372 59.016179152738665 50.737301531788155 H 0.0 **** 0.06
36778 H 84.54009265415507 58.496067946389296 51.28288034583153 H 0.0 **** 0.06
36779 H 83.57647432796418 59.60873505578258 52.28549369715518 H 0.0 **** 0.06
36780 H 84.27804750343239 60.17475263913398 50.75037320290777 H 0.0 **** 0.06
36781 C 55.86160502034258 97.95093194356966 56.55231819278052 C 0.0 **** -0.24
36782 H 55.69542445392801 97.77642695372299 55.489448305088274 H 0.0 **** 0.06
36783 H 56.83893116063058 97.56004681812414 56.83632497637103 H 0.0 **** 0.06
36784 H 55.086613809064715 97.44754286335316 57.12906975447973 H 0.0 **** 0.06
36785 H 55.82708510062699 99.02217211558971 56.75330156927373 H 0.0 **** 0.06
36786 C 67.80280618006287 26.46643231851985 49.103168850570775 C 0.0 **** -0.24
36787 H 68.05860617029293 27.177020065681404 48.317501756866555 H 0.0 **** 0.06
36788 H 68.5683545789064 25.69141932622756 49.15607424024845 H 0.0 **** 0.06
36789 H 66.83844448983422 26.01097543913835 48.88011078783399 H 0.0 **** 0.06
36790 H 67.74593636522576 26.9876786399646 50.05934276180252 H 0.0 **** 0.06
36791 C 107.64313948132987 15.664765797473706 97.17221284618208 C 0.0 **** -0.24
36792 H 107.42586121177628 14.615267208260434 96.97356427351053 H 0.0 **** 0.06
36793 H 108.58370553853416 15.74466836838485 97.71704075354566 H 0.0 **** 0.06
36794 H 106.83891648892711 16.095168705058086 97.77020548092844 H 0.0 **** 0.06
36795 H 107.7221422614459 16.204440133876233 96.22822630533065 H 0.0 **** 0.06
36796 C 109.67483286049892 76.52671592836808 35.35767808237301 C 0.0 **** -0.24
36797 H 109.18802760482058 75.82694518410338 36.03663898871933 H 0.0 **** 0.06
36798 H 110.2850019769839 75.97367170401569 34.642787049382534 H 0.0 **** 0.06
36799 H 110.30821746244426 77.20548721691029 35.92817158101104 H 0.0 **** 0.06
36800 H 108.91778830064368 77.09932239387689 34.82219443272129 H 0.0 **** 0.06
36801 C 46.8194074768725 34.72582209533173 3.6618596366012426 C 0.0 **** -0.24
36802 H 46.76810089726055 35.78106830025195 3.3912297303102026 H 0.0 **** 0.06
36803 H 46.92994361015903 34.12485290992156 2.759512052028054 H 0.0 **** 0.06
36804 H 45.9043133097305 34.43930231523882 4.1801167826056815 H 0.0 **** 0.06
36805 H 47.67485426689461 34.560250123894356 4.3163556802273515 H 0.0 **** 0.06
36806 C 84.77265135794099 68.04077690858242 9.411660686316154 C 0.0 **** -0.24
36807 H 84.1606613993095 67.366583847687 8.81284487897797 H 0.0 **** 0.06
36808 H 85.8269398192102 67.847839573546 9.211857165079252 H 0.0 **** 0.06
36809 H 84.56606233112132 67.87562412066711 10.469275901382844 H 0.0 **** 0.06
36810 H 84.53596633065447 69.07319075455544 9.152841671148721 H 0.0 **** 0.06
36811 C 14.675895499693922 36.887312031211195 79.59126067046657 C 0.0 **** -0.24
36812 H 14.194748216958828 37.801652904796896 79.93741151301174 H 0.0 **** 0.06
36813 H 15.257145897089316 37.10023775946959 78.69324725998365 H 0.0 **** 0.06
36814 H 13.914979953130654 36.140279747257665 79.36324808182974 H 0.0 **** 0.06
36815 H 15.337027472325161 36.5065841331523 80.3703269209501 H 0.0 **** 0.06
36816 C 43.628666723411555 27.317984177758433 104.03320490760646 C 0.0 **** -0.24
36817 H 42.53974781143447 27.315770735686385 103.9709700320993 H 0.0 **** 0.06
36818 H 44.047017125620954 27.024835979112765 103.06984800814132 H 0.0 **** 0.06
36819 H 43.94960751194458 26.612226770884604 104.79919176603144 H 0.0 **** 0.06
36820 H 43.97622637208568 28.318180670509776 104.29187584942497 H 0.0 **** 0.06
36821 C 60.96328259633813 36.59810171681127 43.30542942590583 C 0.0 **** -0.24
36822 H 61.88201031015413 37.16115074288836 43.47002765205397 H 0.0 **** 0.06
36823 H 60.519546133128756 36.89683729963324 42.355764017882535 H 0.0 **** 0.06
36824 H 60.26315297341392 36.80139114508382 44.115220301319226 H 0.0 **** 0.06
36825 H 61.1912592742475 35.53173834589321 43.28123696404336 H 0.0 **** 0.06
36826 C 56.6397563064425 45.76163955529796 78.32696460113024 C 0.0 **** -0.24
36827 H 56.38373908156265 45.442772549488716 77.31738433663179 H 0.0 **** 0.06
36828 H 55.95367745351817 45.301031991086404 79.03809180165095 H 0.0 **** 0.06
36829 H 56.560137589062556 46.84691053327205 78.39621921754346 H 0.0 **** 0.06
36830 H 57.661138333876174 45.45740403958156 78.556836139491 H 0.0 **** 0.06
36831 C 66.70064228151614 81.07325771804827 54.91113727407685 C 0.0 **** -0.24
36832 H 66.1854128730744 80.19912594465922 55.30849058353641 H 0.0 **** 0.06
36833 H 65.97928446764152 81.73260785918856 54.429139715153156 H 0.0 **** 0.06
36834 H 67.44580975623694 80.75435579369014 54.18140755355873 H 0.0 **** 0.06
36835 H 67.19349431954046 81.60554945980496 55.7245054214263 H 0.0 **** 0.06
36836 C 74.0824578434723 83.85320124931735 27.419703037522368 C 0.0 **** -0.24
36837 H 74.04900445204285 82.76419978009821 27.412702819873772 H 0.0 **** 0.06
36838 H 73.07090652970919 84.24697838798775 27.52832627367465 H 0.0 **** 0.06
36839 H 74.51245372825431 84.20980422443546 26.483515946212805 H 0.0 **** 0.06
36840 H 74.69679763666247 84.19289140863458 28.253626661831532 H 0.0 **** 0.06
36841 C 0.02622848365447794 69.82980063202075 34.22629941756094 C 0.0 **** -0.24
36842 H -0.36604174942073087 70.64556214634203 34.833587329432845 H 0.0 **** 0.06
36843 H -0.6303685442196922 68.96394967719425 34.31477476730322 H 0.0 **** 0.06
36844 H 1.025032351717158 69.56628506653195 34.57407918091761 H 0.0 **** 0.06
36845 H 0.07479364976938996 70.1444953369533 33.18400865309886 H 0.0 **** 0.06
36846 C 3.624860484981326 74.21941834937354 59.09212850596885 C 0.0 **** -0.24
36847 H 2.6354644520333466 74.31656737142688 59.54010060256332 H 0.0 **** 0.06
36848 H 3.898258932057189 75.15643984511422 58.60709408413654 H 0.0 **** 0.06
36849 H 3.613160748359249 73.41778952054491 58.3543733530015 H 0.0 **** 0.06
36850 H 4.3531874083334685 73.98599363997926 59.86991658090181 H 0.0 **** 0.06
36851 C 20.79779270755906 54.52789514056781 66.16570118168616 C 0.0 **** -0.24
36852 H 19.990593091753585 54.88531492390399 66.8037420681382 H 0.0 **** 0.06
36853 H 21.736624070631095 54.55265933766901 66.71996453033185 H 0.0 **** 0.06
36854 H 20.876335117874998 55.16772628266989 65.2873416138423 H 0.0 **** 0.06
36855 H 20.58721514849373 53.5049828996826 65.85193679932044 H 0.0 **** 0.06
36856 C 99.96424479141459 69.03037403553259 28.785372354166157 C 0.0 **** -0.24
36857 H 100.14630610402281 68.26486462948384 28.030896752575615 H 0.0 **** 0.06
36858 H 99.5414008024938 69.91498534068643 28.30882623034384 H 0.0 **** 0.06
36859 H 100.90371430486002 69.29251105144536 29.270978730637893 H 0.0 **** 0.06
36860 H 99.26492901749597 68.64757445325654 29.52830390224122 H 0.0 **** 0.06
36861 C 26.02553349852935 14.989061809562571 57.07745863365543 C 0.0 **** -0.24
36862 H 25.84089994867047 14.159534177286815 57.75961383405494 H 0.0 **** 0.06
36863 H 25.08541550028101 15.492667121132342 56.854231883397894 H 0.0 **** 0.06
36864 H 26.463196106847427 14.609334589873754 56.155008099707096 H 0.0 **** 0.06
36865 H 26.71407968862531 15.694418480400685 57.54292776376555 H 0.0 **** 0.06
36866 C 27.439151369504188 95.39694437265715 47.31483147326679 C 0.0 **** -0.24
36867 H 28.20768125849662 96.17054903151387 47.32712360516177 H 0.0 **** 0.06
36868 H 26.531931278872648 95.78001762353881 47.78253651515976 H 0.0 **** 0.06
36869 H 27.79255063573285 94.52561696118738 47.86572062799286 H 0.0 **** 0.06
36870 H 27.22593452330858 95.1143315498995 46.284473334394534 H 0.0 **** 0.06
36871 C 89.19081036665835 88.71415971178675 53.768031059590385 C 0.0 **** -0.24
36872 H 90.12626416301686 88.24055223144302 53.46880942764119 H 0.0 **** 0.06
36873 H 88.49962475332183 87.95358393393295 54.13283291171399 H 0.0 **** 0.06
36874 H 88.75178940750044 89.22342148244653 52.910901921264326 H 0.0 **** 0.06
36875 H 89.38785613334875 89.43649294088831 54.559789246148625 H 0.0 **** 0.06
36876 C 26.65723248681526 74.68717949622493 65.08825156576839 C 0.0 **** -0.24
36877 H 26.096354738972238 74.48822059763245 66.0011720822502 H 0.0 **** 0.06
36878 H 26.04260598028199 75.27188695582117 64.40396520599543 H 0.0 **** 0.06
36879 H 26.927960388824943 73.74260053009397 64.6163051935512 H 0.0 **** 0.06
36880 H 27.56189484314008 75.244688750548 65.33107217279155 H 0.0 **** 0.06
36881 C 90.810979677739 18.132338243558678 82.67491549932524 C 0.0 **** -0.24
36882 H 90.33821570415398 17.733504360246386 81.77674000641917 H 0.0 **** 0.06
36883 H 91.88631720035355 17.95714150542031 82.62782228432005 H 0.0 **** 0.06
36884 H 90.39998011669024 17.633330145556542 83.55272338824958 H 0.0 **** 0.06
36885 H 90.61861731481193 19.203065143622325 82.74219112544304 H 0.0 **** 0.06
36886 C 20.55858217620333 112.65672871952636 51.12102819489396 C 0.0 **** -0.24
36887 H 20.15587385158115 113.3661214871525 51.84482399739506 H 0.0 **** 0.06
36888 H 21.260170533169358 111.9878231077506 51.6206205436048 H 0.0 **** 0.06
36889 H 21.073896544100425 113.19907557681289 50.32858365230109 H 0.0 **** 0.06
36890 H 19.743157935446824 112.07395644525916 50.69263098263226 H 0.0 **** 0.06
36891 C 29.15175662349486 103.37767885927752 78.50224730714103 C 0.0 **** -0.24
36892 H 29.217563046846465 103.97394082564236 77.5916553981121 H 0.0 **** 0.06
36893 H 29.88877714285428 103.73244115472482 79.22299544755947 H 0.0 **** 0.06
36894 H 29.34772521608599 102.33149801056865 78.26618722642965 H 0.0 **** 0.06
36895 H 28.151590393042085 103.47290504959506 78.92669631040152 H 0.0 **** 0.06
36896 C 107.1881324097622 16.784738723638313 92.16438447563243 C 0.0 **** -0.24
36897 H 106.87661038529643 17.681024185504874 92.7010760130583 H 0.0 **** 0.06
36898 H 108.25130622526825 16.84986729394288 91.93464319719627 H 0.0 **** 0.06
36899 H 106.6195677057371 16.701494373550325 91.23783713292278 H 0.0 **** 0.06
36900 H 107.00311865464022 15.907907549581235 92.78468631932054 H 0.0 **** 0.06
36901 C 30.357622647117417 42.4232360503803 66.16237893550328 C 0.0 **** -0.24
36902 H 29.291955681269762 42.22306496530871 66.27812392042037 H 0.0 **** 0.06
36903 H 30.922650973863 41.78962638078849 66.84566740888295 H 0.0 **** 0.06
36904 H 30.556199982928547 43.47039337863072 66.38913193061046 H 0.0 **** 0.06
36905 H 30.657119028088502 42.21103731597191 65.13640721971325 H 0.0 **** 0.06
36906 C 11.880908501496108 65.83805783098992 9.53305736928229 C 0.0 **** -0.24
36907 H 12.531598691951558 66.3128987074299 8.799583622602086 H 0.0 **** 0.06
36908 H 12.038624350927591 64.75950927549894 9.513432435291975 H 0.0 **** 0.06
36909 H 10.841138054951031 66.05873621990875 9.292949432776595 H 0.0 **** 0.06
36910 H 12.114467961476436 66.2207046101442 10.526452957048264 H 0.0 **** 0.06
36911 C 70.95825082822313 22.65587924080465 93.60671060902536 C 0.0 **** -0.24
36912 H 70.27359629754 23.491430843164807 93.75526070851373 H 0.0 **** 0.06
36913 H 71.15873641032869 22.175570962401853 94.56421405869531 H 0.0 **** 0.06
36914 H 71.89223604313378 23.023966170052713 93.1814882548477 H 0.0 **** 0.06
36915 H 70.5082334915785 21.93526847069664 92.92462861712869 H 0.0 **** 0.06
36916 C 66.03671279847092 52.409733390713086 2.9055344798146905 C 0.0 **** -0.24
36917 H 65.13300833776296 51.83336232947562 2.7085496741110546 H 0.0 **** 0.06
36918 H 66.38678886864687 52.863767199286315 1.9774129633609334 H 0.0 **** 0.06
36919 H 66.80959313499017 51.75087116618144 3.301774260613513 H 0.0 **** 0.06
36920 H 65.81829568245857 53.19181532081623 3.6322738925633757 H 0.0 **** 0.06
36921 C 86.54970141151534 81.10137591133633 79.99729656460889 C 0.0 **** -0.24
36922 H 87.17456613304407 81.00373345128997 79.10936670426176 H 0.0 **** 0.06
36923 H 86.61052342776992 82.12386406080844 80.37247673537945 H 0.0 **** 0.06
36924 H 86.89830138736028 80.4104830104369 80.76475107871366 H 0.0 **** 0.06
36925 H 85.51601314272105 80.86904668508237 79.7411753386732 H 0.0 **** 0.06
36926 C 6.180139238202743 20.405365495723373 89.35732766380116 C 0.0 **** -0.24
36927 H 6.189972469615425 19.5396005443622 90.02021513605911 H 0.0 **** 0.06
36928 H 5.424797109448322 20.262086044263583 88.58363473633293 H 0.0 **** 0.06
36929 H 7.159827732192769 20.518246374613796 88.89292508280388 H 0.0 **** 0.06
36930 H 5.946193998330969 21.301034983001045 89.93337299410945 H 0.0 **** 0.06
36931 C 97.82329365466225 75.54869706878884 10.721637917287254 C 0.0 **** -0.24
36932 H 97.5661053959613 74.54713063959159 11.06716405139585 H 0.0 **** 0.06
36933 H 98.78959067892961 75.52166382407401 10.217170175743092 H 0.0 **** 0.06
36934 H 97.87766140420635 76.22482387512497 11.575151307240219 H 0.0 **** 0.06
36935 H 97.06072905040148 75.90025434498895 10.027640786388488 H 0.0 **** 0.06
36936 C 101.71906530076319 62.13084397240465 106.06369610213414 C 0.0 **** -0.24
36937 H 101.73953081094447 61.63196917954792 105.09458026020238 H 0.0 **** 0.06
36938 H 100.69710811496876 62.152638581952374 106.44073964664388 H 0.0 **** 0.06
36939 H 102.0876846907532 63.15106081208285 105.95419829549726 H 0.0 **** 0.06
36940 H 102.35539309136422 61.588290254531955 106.76395454229187 H 0.0 **** 0.06
36941 C 2.5932573245593886 100.80271651599065 104.87012636865194 C 0.0 **** -0.24
36942 H 2.215268554283824 99.85266324953216 104.49345060874367 H 0.0 **** 0.06
36943 H 2.14097435304339 101.0153122564588 105.83947750628113 H 0.0 **** 0.06
36944 H 2.3397264538471205 101.59830624119274 104.16902115870454 H 0.0 **** 0.06
36945 H 3.676381079638574 100.74531287554703 104.97846448696544 H 0.0 **** 0.06
36946 C 83.51012264925939 100.20432682502047 102.50755440236523 C 0.0 **** -0.24
36947 H 83.29321847138874 99.24261275091283 102.04280393442289 H 0.0 **** 0.06
36948 H 83.30343815893264 101.00510071679747 101.79719174001349 H 0.0 **** 0.06
36949 H 84.56106143075499 100.23847267277921 102.7970836852368 H 0.0 **** 0.06
36950 H 82.88513113496839 100.33068688737666 103.39107694301734 H 0.0 **** 0.06
36951 C 64.06924067580567 51.64281180753493 87.6867218451707 C 0.0 **** -0.24
36952 H 64.62168080554031 52.15012628917135 86.89706166692412 H 0.0 **** 0.06
36953 H 63.785087721183025 50.64573682938384 87.34911257366099 H 0.0 **** 0.06
36954 H 63.172061238318356 52.21388549128319 87.9276374958886 H 0.0 **** 0.06
36955 H 64.6960058625304 51.560726706073 88.57504546859604 H 0.0 **** 0.06
36956 C 25.783834170202084 18.62040973975553 34.469803054019394 C 0.0 **** -0.24
36957 H 25.690827203915063 18.31254170174148 33.42852819045481 H 0.0 **** 0.06
36958 H 25.82037481044054 19.70838701613978 34.52524326899197 H 0.0 **** 0.06
36959 H 26.698079052797652 18.203793963041264 34.89153511557453 H 0.0 **** 0.06
36960 H 24.92481003029806 18.256306115842094 35.03418193359829 H 0.0 **** 0.06
36961 C 13.260662354555095 11.305655661431757 32.946185215844736 C 0.0 **** -0.24
36962 H 12.255184164751881 10.974153602676637 32.68824656920785 H 0.0 **** 0.06
36963 H 13.311862507562665 11.510034849511612 34.016597379004516 H 0.0 **** 0.06
36964 H 13.497099444432592 12.21333185782052 32.39163695883042 H 0.0 **** 0.06
36965 H 13.97697521687121 10.525919204393432 32.689991436442725 H 0.0 **** 0.06
36966 C 107.52425132227148 91.26624463580606 111.60888039445155 C 0.0 **** -0.24
36967 H 107.84791033843061 92.29049455102947 111.79136953888587 H 0.0 **** 0.06
36968 H 106.58704460738107 91.27439350980765 111.05231812141727 H 0.0 **** 0.06
36969 H 107.3773262274027 90.7565776825972 112.5613892040617 H 0.0 **** 0.06
36970 H 108.28657585813556 90.74250174149432 111.03118572311053 H 0.0 **** 0.06
36971 C 89.08475741630252 63.986603802718285 36.16519492030116 C 0.0 **** -0.24
36972 H 88.22651906332408 63.420564861454075 36.52636966673441 H 0.0 **** 0.06
36973 H 89.49342133669711 63.50026577772679 35.27839245070555 H 0.0 **** 0.06
36974 H 89.84736231915639 64.02496170706303 36.942407095933305 H 0.0 **** 0.06
36975 H 88.77199514972017 64.99950458172304 35.912315214846984 H 0.0 **** 0.06
36976 C 58.86448298766707 37.71212387654009 2.910923003574254 C 0.0 **** -0.24
36977 H 58.2068948563413 38.44816721375605 2.44806831494337 H 0.0 **** 0.06
36978 H 58.33923680785373 36.76095273502739 3.000406683954367 H 0.0 **** 0.06
36979 H 59.1583655715473 38.06015895913106 3.900993191490457 H 0.0 **** 0.06
36980 H 59.752799914819185 37.58095662732521 2.2926208055154547 H 0.0 **** 0.06
36981 C 20.314290898696242 73.61274323009746 18.811360569648585 C 0.0 **** -0.24
36982 H 19.810236430768754 72.67231542372596 19.03563509379428 H 0.0 **** 0.06
36983 H 19.626025392906882 74.27724857312577 18.288749194752214 H 0.0 **** 0.06
36984 H 21.18206246827353 73.41802591210322 18.181922722124952 H 0.0 **** 0.06
36985 H 20.637889021266687 74.0814154741006 19.740931434832007 H 0.0 **** 0.06
36986 C 32.61524337455747 50.692588717644696 21.17985794508607 C 0.0 **** -0.24
36987 H 32.14456847319336 51.26841650869154 20.383478739993535 H 0.0 **** 0.06
36988 H 32.71485675097085 51.31543673367145 22.06935778707043 H 0.0 **** 0.06
36989 H 33.60247858648566 50.36362834486374 20.854484107793866 H 0.0 **** 0.06
36990 H 32.00071583966139 49.82273076550196 21.41159148967907 H 0.0 **** 0.06
36991 C 3.6169682558646805 81.14199984188312 89.8345788753414 C 0.0 **** -0.24
36992 H 3.8571207317197356 81.31592423030341 90.8833278766991 H 0.0 **** 0.06
36993 H 3.5235663040756133 82.09822440888104 89.32060320003515 H 0.0 **** 0.06
36994 H 2.675968843167885 80.59690956865953 89.76271741115374 H 0.0 **** 0.06
36995 H 4.412525108597485 80.55735060133736 89.37272614407172 H 0.0 **** 0.06
36996 C 98.02245557920023 70.11812862688441 2.9309337210795263 C 0.0 **** -0.24
36997 H 98.23169287641232 71.18789740893035 2.909464511309892 H 0.0 **** 0.06
36998 H 96.95555020655462 69.95399912961761 2.7752420355070626 H 0.0 **** 0.06
36999 H 98.31676076542504 69.70977205817314 3.896734243243259 H 0.0 **** 0.06
37000 H 98.58494606691994 69.62312899974285 2.1389733436050875 H 0.0 **** 0.06
37001 C 71.59728330404974 94.76633006272525 12.795013222379694 C 0.0 **** -0.24
37002 H 71.60892493707618 93.6770490077123 12.742996711343551 H 0.0 **** 0.06
37003 H 70.9079422952255 95.15785632243734 12.045948048207393 H 0.0 **** 0.06
37004 H 72.59906533372194 95.1491927148501 12.603069789502314 H 0.0 **** 0.06
37005 H 71.2717877389232 95.0793132804273 13.787438319073502 H 0.0 **** 0.06
37006 C 101.4111965538327 66.6558906631816 109.06752445320123 C 0.0 **** -0.24
37007 H 101.43845572438704 66.30729496479401 110.09968109752381 H 0.0 **** 0.06
37008 H 101.72843031720674 65.85078029519389 108.4038102861355 H 0.0 **** 0.06
37009 H 102.08349692657126 67.5066254627244 108.95312191663967 H 0.0 **** 0.06
37010 H 100.39529138392311 66.95862221227142 108.8130923324093 H 0.0 **** 0.06
37011 C 112.38564350643234 37.57765457245152 94.27821678765451 C 0.0 **** -0.24
37012 H 111.51016334271841 37.51645561087448 93.63140183200153 H 0.0 **** 0.06
37013 H 112.79957410183277 36.58023591532109 94.42400717339748 H 0.0 **** 0.06
37014 H 112.09440797681617 37.9949673285803 95.24257635133239 H 0.0 **** 0.06
37015 H 113.13566096172522 38.218659116041344 93.81600003950092 H 0.0 **** 0.06
37016 C 10.304559963950961 84.89042714095913 29.54378480089713 C 0.0 **** -0.24
37017 H 10.564657246095766 85.19967186754948 30.556233567902183 H 0.0 **** 0.06
37018 H 10.236714108140834 85.76962399426412 28.902240349429945 H 0.0 **** 0.06
37019 H 9.344003733768083 84.37515923715648 29.556750871766553 H 0.0 **** 0.06
37020 H 11.072308182889351 84.2194022044861 29.16018536633854 H 0.0 **** 0.06
37021 C 83.58312788058672 22.388635222377474 99.01576498211787 C 0.0 **** -0.24
37022 H 84.24264612106214 21.98942685448108 98.24579114652175 H 0.0 **** 0.06
37023 H 84.15068373099169 22.55212033182906 99.93207572981356 H 0.0 **** 0.06
37024 H 82.77816478273982 21.677851863793222 99.20847965100305 H 0.0 **** 0.06
37025 H 83.15935638409218 23.33370971139425 98.6762751988615 H 0.0 **** 0.06
37026 C 102.51497796674383 65.59854609687852 11.501082257683606 C 0.0 **** -0.24
37027 H 101.75289197335732 66.37403310042265 11.42677067307315 H 0.0 **** 0.06
37028 H 103.43810504165054 65.9506166062225 11.038898049684178 H 0.0 **** 0.06
37029 H 102.1703873438413 64.70064761665594 10.986875992107997 H 0.0 **** 0.06
37030 H 102.69829107289289 65.36770555426304 12.55104387946676 H 0.0 **** 0.06
37031 C 42.46197395454382 96.2269135397602 64.55232046571297 C 0.0 **** -0.24
37032 H 43.43209479408719 96.65706316009346 64.30334204616608 H 0.0 **** 0.06
37033 H 41.75132634313808 97.0272951398207 64.75597360178253 H 0.0 **** 0.06
37034 H 42.560919133545084 95.59545399869933 65.4358192749477 H 0.0 **** 0.06
37035 H 42.10465786227917 95.627627270901 63.71500657167968 H 0.0 **** 0.06
37036 C 18.15917488672619 50.87082930114851 31.161639809047756 C 0.0 **** -0.24
37037 H 17.844423238169583 50.68292043806624 30.13556427676548 H 0.0 **** 0.06
37038 H 19.23535228553638 51.04686026150156 31.18472197367055 H 0.0 **** 0.06
37039 H 17.91868490322119 50.005976857283734 31.77991742158929 H 0.0 **** 0.06
37040 H 17.6391750186134 51.74852085954641 31.545908038683024 H 0.0 **** 0.06
37041 C 55.4704238375651 100.06187047164252 74.96904226723987 C 0.0 **** -0.24
37042 H 55.38354261368435 100.81071358446272 74.18218332266633 H 0.0 **** 0.06
37043 H 54.648196897933964 99.3498899160937 74.88601192291432 H 0.0 **** 0.06
37044 H 55.430857793252834 100.55136044799264 75.94263126376262 H 0.0 **** 0.06
37045 H 56.41992378044759 99.53560048083347 74.86590059637243 H 0.0 **** 0.06
37046 C 4.801160984503895 61.83959959042093 45.66648216089516 C 0.0 **** -0.24
37047 H 5.216432577520038 61.038331454643014 46.27742425903048 H 0.0 **** 0.06
37048 H 5.044555472113373 61.66038969336617 44.618729143745696 H 0.0 **** 0.06
37049 H 5.224335064114072 62.79298134968076 45.9806719621555 H 0.0 **** 0.06
37050 H 3.717790687296585 61.8650564824064 45.7881176574233 H 0.0 **** 0.06
37051 C 97.48464744847996 63.13841804883811 11.12003663271426 C 0.0 **** -0.24
37052 H 97.22188192160354 64.08792572278665 10.652076239629281 H 0.0 **** 0.06
37053 H 96.73104291014528 62.87969762708271 11.862925760112589 H 0.0 **** 0.06
37054 H 98.45744168264645 63.230095231054214 11.604502460018836 H 0.0 **** 0.06
37055 H 97.52958112975227 62.359238736044766 10.359473733448468 H 0.0 **** 0.06
37056 C 16.455591066304812 97.1500551920332 14.789477352526745 C 0.0 **** -0.24
37057 H 16.68560660749188 97.05880330795898 13.727212121306025 H 0.0 **** 0.06
37058 H 16.25740432468713 96.16156679732066 15.204493169490107 H 0.0 **** 0.06
37059 H 15.575991159642832 97.78070918137297 14.916543906834278 H 0.0 **** 0.06
37060 H 17.302447887443563 97.59909048095196 15.306803292692194 H 0.0 **** 0.06
37061 C 12.593156882980026 59.14867176515536 91.71492364282466 C 0.0 **** -0.24
37062 H 11.760170065396963 59.79834224721379 91.98492300934362 H 0.0 **** 0.06
37063 H 12.426961308092018 58.15445812624555 92.12906568612831 H 0.0 **** 0.06
37064 H 13.519390679295313 59.56067943261042 92.11651307664556 H 0.0 **** 0.06
37065 H 12.665899916180706 59.0829226599354 90.62931648593022 H 0.0 **** 0.06
37066 C 71.03975386381069 2.8796232186398356 51.03717981676758 C 0.0 **** -0.24
37067 H 71.2606840260492 2.413901157109194 50.076429458372 H 0.0 **** 0.06
37068 H 71.75418398401354 3.6822016267089452 51.22383716221208 H 0.0 **** 0.06
37069 H 71.11649130392578 2.1340628779532267 51.82847275969175 H 0.0 **** 0.06
37070 H 70.02979703936816 3.289329541608538 51.01933783341379 H 0.0 **** 0.06
37071 C 30.374534604194984 20.503014137363223 28.95189324410441 C 0.0 **** -0.24
37072 H 31.30192747230248 20.103320061713816 29.363704581314778 H 0.0 **** 0.06
37073 H 30.11889714950196 19.961137867951855 28.0415350897959 H 0.0 **** 0.06
37074 H 30.50529081686782 21.55990319002575 28.72263650662879 H 0.0 **** 0.06
37075 H 29.573647079780322 20.385858490458375 29.68193030975152 H 0.0 **** 0.06
37076 C 109.1774768671565 7.637077572166234 18.32230399281252 C 0.0 **** -0.24
37077 H 109.97756573951122 8.376672508706179 18.378780911715978 H 0.0 **** 0.06
37078 H 109.09599098318257 7.267825251911447 17.29963190140603 H 0.0 **** 0.06
37079 H 108.2360447569953 8.09782255558035 18.620324112713774 H 0.0 **** 0.06
37080 H 109.4038649856117 6.806455028398545 18.991536428872507 H 0.0 **** 0.06
37081 C 39.83093837615925 96.91093397834749 75.64607720960589 C 0.0 **** -0.24
37082 H 39.683077461185576 97.98929330555737 75.70567343968725 H 0.0 **** 0.06
37083 H 38.87456677236622 96.40547228013921 75.78274563061507 H 0.0 **** 0.06
37084 H 40.52361403008004 96.59570995814704 76.42579035521513 H 0.0 **** 0.06
37085 H 40.240631025821386 96.65410702205747 74.66920043298913 H 0.0 **** 0.06
37086 C 71.80323171078052 2.7434040472177514 0.6299198332991125 C 0.0 **** -0.24
37087 H 72.56935590677838 3.206757893036979 0.0091298057021163 H 0.0 **** 0.06
37088 H 72.27887865673549 2.1514093891436232 1.41224887742041 H 0.0 **** 0.06
37089 H 71.17812383923635 2.096871096079184 0.014257048264880723 H 0.0 **** 0.06
37090 H 71.18656844037173 3.5185778106112764 1.0840436018092419 H 0.0 **** 0.06
37091 C 111.7313467219512 48.16976550514872 108.88962688427954 C 0.0 **** -0.24
37092 H 111.41972036829915 49.09226420981318 109.37905463164059 H 0.0 **** 0.06
37093 H 112.77799525599114 48.25131737765349 108.5935143640491 H 0.0 **** 0.06
37094 H 111.11546602190182 48.002330017187774 108.00522042190157 H 0.0 **** 0.06
37095 H 111.61302627787461 47.33359112098984 109.57845272356612 H 0.0 **** 0.06
37096 C 7.365865398588284 39.83790146083368 104.28667901226143 C 0.0 **** -0.24
37097 H 7.036566578431064 38.935983797761025 104.80309960931547 H 0.0 **** 0.06
37098 H 8.320571324416306 40.1647417652797 104.69904464295658 H 0.0 **** 0.06
37099 H 6.6227944270892465 40.62487164390785 104.42029383765316 H 0.0 **** 0.06
37100 H 7.481710391241251 39.62500158309041 103.22345465622925 H 0.0 **** 0.06
37101 C 82.79114506121616 15.167178355448868 22.379331468257163 C 0.0 **** -0.24
37102 H 82.76027665095489 14.13328333747748 22.037218100426173 H 0.0 **** 0.06
37103 H 83.5407731382673 15.716558472873402 21.809056383902686 H 0.0 **** 0.06
37104 H 83.04837988617643 15.191798930868458 23.437857525391536 H 0.0 **** 0.06
37105 H 81.81399875652335 15.627851069823095 22.23144237230224 H 0.0 **** 0.06
37106 C 111.16231135341269 71.85046917424569 10.700599686859597 C 0.0 **** -0.24
37107 H 111.25755284631731 70.78639218826973 10.9150491476389 H 0.0 **** 0.06
37108 H 111.12457820013924 72.40741061726973 11.636138973236832 H 0.0 **** 0.06
37109 H 110.24623727761212 72.02629412942082 10.135502050663902 H 0.0 **** 0.06
37110 H 112.0201660426917 72.18040256889299 10.114096733778137 H 0.0 **** 0.06
37111 C 60.97769648091565 75.15110934211233 106.41277639961783 C 0.0 **** -0.24
37112 H 60.774705632176996 74.30772372804134 105.75266139468371 H 0.0 **** 0.06
37113 H 61.2972809514095 76.00764530648439 105.81829144611913 H 0.0 **** 0.06
37114 H 61.76523909165578 74.88125113493663 107.115905503172 H 0.0 **** 0.06
37115 H 60.07180825357994 75.40786678559257 106.96181238986816 H 0.0 **** 0.06
37116 C 85.19821913899148 71.23601751910897 70.19255759431033 C 0.0 **** -0.24
37117 H 85.91921955569347 70.9961088033379 70.97400662945424 H 0.0 **** 0.06
37118 H 85.22660019318067 72.30734019201665 69.9885998747946 H 0.0 **** 0.06
37119 H 84.19852205639648 70.95491382205347 70.52147515092764 H 0.0 **** 0.06
37120 H 85.449234948759 70.68667500229787 69.2853915502993 H 0.0 **** 0.06
37121 C 98.34312769197848 4.135669063838122 73.04410944581463 C 0.0 **** -0.24
37122 H 98.5038204143483 3.4413796979610822 72.21946254940414 H 0.0 **** 0.06
37123 H 97.72725520038881 3.657824714165713 73.806091892947 H 0.0 **** 0.06
37124 H 97.83601159905203 5.027304321597114 72.6734703930712 H 0.0 **** 0.06
37125 H 99.30359896788721 4.4162032532602495 73.47525191518932 H 0.0 **** 0.06
37126 C 34.822241987662586 40.743087504865315 27.5374543283921 C 0.0 **** -0.24
37127 H 35.821742915452276 40.58816373922477 27.130461769808562 H 0.0 **** 0.06
37128 H 34.58366683519406 41.806700489168065 27.516820979152953 H 0.0 **** 0.06
37129 H 34.78865887099622 40.38289414507415 28.566140559460393 H 0.0 **** 0.06
37130 H 34.096512120090175 40.19613028858956 26.93657223956228 H 0.0 **** 0.06
37131 C 27.28456998704135 64.46608093977773 7.085076052018721 C 0.0 **** -0.24
37132 H 27.87281935732213 65.29849462321599 6.699163477747348 H 0.0 **** 0.06
37133 H 27.872293802295147 63.91569945785113 7.8197231290566975 H 0.0 **** 0.06
37134 H 27.013746060567613 63.8022065982513 6.264098191229877 H 0.0 **** 0.06
37135 H 26.37931533468378 64.84887451358202 7.555875860191463 H 0.0 **** 0.06
37136 C 103.36552681432377 25.285729913204918 35.47411074779768 C 0.0 **** -0.24
37137 H 104.21235676333103 25.785697574540116 35.00341254769364 H 0.0 **** 0.06
37138 H 102.86962409844836 24.646456539729815 34.743861868356134 H 0.0 **** 0.06
37139 H 102.66187204003504 26.032922944421024 35.84232939756703 H 0.0 **** 0.06
37140 H 103.72087058356632 24.679269158894478 36.307186703238756 H 0.0 **** 0.06
37141 C 36.104942046125984 34.12153921337682 22.646567643920832 C 0.0 **** -0.24
37142 H 36.19400989307968 35.03514578775807 22.059340006311444 H 0.0 **** 0.06
37143 H 35.60182160783421 33.3569674627488 22.053756282322777 H 0.0 **** 0.06
37144 H 35.52521882894638 34.32420467156899 23.54751166868506 H 0.0 **** 0.06
37145 H 37.097907728638575 33.76963559843446 22.925112701759346 H 0.0 **** 0.06
37146 C 56.89478819391357 0.45745579290935634 13.798627140681987 C 0.0 **** -0.24
37147 H 56.348770664421835 0.20868477877403802 12.888291891750725 H 0.0 **** 0.06
37148 H 56.24141609610686 1.0115770007994227 14.47335081788873 H 0.0 **** 0.06
37149 H 57.761193817982424 1.0686193203840384 13.547930578993743 H 0.0 **** 0.06
37150 H 57.225688706707494 -0.45983858936821687 14.285959957593988 H 0.0 **** 0.06
37151 C 91.21096776633007 87.53306468186054 36.20076551702786 C 0.0 **** -0.24
37152 H 91.81664926290051 87.83774612411969 37.05519610262934 H 0.0 **** 0.06
37153 H 91.63471271635004 87.95105267700029 35.288369459555724 H 0.0 **** 0.06
37154 H 90.19176435383727 87.89866540168038 36.32922934452225 H 0.0 **** 0.06
37155 H 91.20063338153892 86.44521065883339 36.13323615851954 H 0.0 **** 0.06
37156 C 33.89479038561773 86.29595933571485 98.80236818607719 C 0.0 **** -0.24
37157 H 33.00423363672058 85.7918780220017 98.42473980827953 H 0.0 **** 0.06
37158 H 34.77879070406985 85.88523431544391 98.31481432170011 H 0.0 **** 0.06
37159 H 33.96811056003206 86.14290822683381 99.87912206013232 H 0.0 **** 0.06
37160 H 33.82474492339919 87.36352800243975 98.59041242188448 H 0.0 **** 0.06
37161 C 59.389298376305526 93.03273256339682 88.83979570241874 C 0.0 **** -0.24
37162 H 60.1560645416179 93.76584411585628 89.090956028931 H 0.0 **** 0.06
37163 H 59.038620590510725 92.54806147389485 89.75162928613568 H 0.0 **** 0.06
37164 H 59.80846809226497 92.28367298017375 88.16840621129819 H 0.0 **** 0.06
37165 H 58.554653212382256 93.53363784489832 88.35054559148824 H 0.0 **** 0.06
37166 C 66.23107959464338 0.37647601474371584 6.247586637072885 C 0.0 **** -0.24
37167 H 66.981466490971 -0.38341758463748477 6.030908125967187 H 0.0 **** 0.06
37168 H 65.38319440822733 0.25224491157084117 5.573601650968612 H 0.0 **** 0.06
37169 H 66.665361175584 1.3668530422198018 6.106472098629325 H 0.0 **** 0.06
37170 H 65.89527471255937 0.27114295208981787 7.278919940658568 H 0.0 **** 0.06
37171 C 67.46799225008084 69.30725630025148 110.09548110101596 C 0.0 **** -0.24
37172 H 67.30776872340314 70.23372999848789 110.64675261999001 H 0.0 **** 0.06
37173 H 68.37481593475204 68.82211577248049 110.45674951753348 H 0.0 **** 0.06
37174 H 67.57258515146057 69.53102497851751 109.03366505579164 H 0.0 **** 0.06
37175 H 66.61635217219006 68.64454464337763 110.24505301079856 H 0.0 **** 0.06
37176 C 91.43105386010853 93.80673491615417 29.740684713437446 C 0.0 **** -0.24
37177 H 91.66877632799105 92.78202163146943 30.02704834194961 H 0.0 **** 0.06
37178 H 90.34908905865217 93.94088343269485 29.73462118283399 H 0.0 **** 0.06
37179 H 91.82740552441538 94.00551630461109 28.74475463093799 H 0.0 **** 0.06
37180 H 91.8801086499546 94.49646451099207 30.455661145113424 H 0.0 **** 0.06
37181 C 0.17776978699663104 43.06349669984897 23.95490511016888 C 0.0 **** -0.24
37182 H 0.3354941090592858 43.14084502284851 22.879636954867042 H 0.0 **** 0.06
37183 H -0.8486026169986776 43.3433314801415 24.191956928596497 H 0.0 **** 0.06
37184 H 0.8661252769208572 43.7322625862771 24.471659693246746 H 0.0 **** 0.06
37185 H 0.35820539533425855 42.0381765251974 24.27560253768499 H 0.0 **** 0.06
37186 C 111.51603189887823 50.296703989651675 44.19500663045247 C 0.0 **** -0.24
37187 H 112.23942563870185 51.090333473282726 44.00593475386057 H 0.0 **** 0.06
37188 H 112.03568251147797 49.34034233998181 44.26322755494485 H 0.0 **** 0.06
37189 H 110.7944492526747 50.2609423763185 43.37769635487004 H 0.0 **** 0.06
37190 H 110.99461784072804 50.495520731101784 45.13095568527157 H 0.0 **** 0.06
37191 C 109.97857861477912 32.97241332252455 97.80959917618921 C 0.0 **** -0.24
37192 H 109.88243188550395 31.931821816975436 97.49863687504788 H 0.0 **** 0.06
37193 H 110.58187562861994 33.514227281711314 97.081644026938 H 0.0 **** 0.06
37194 H 110.4595202947916 33.017504974719664 98.7870378025533 H 0.0 **** 0.06
37195 H 108.98844055200992 33.42522800836831 97.87084398767942 H 0.0 **** 0.06
37196 C 112.42688828228128 75.77767011261724 44.65024919839402 C 0.0 **** -0.24
37197 H 113.35362565952451 75.53504564466479 44.1319737024709 H 0.0 **** 0.06
37198 H 112.6138575855437 75.82936725731244 45.7230876314749 H 0.0 **** 0.06
37199 H 111.68348297346978 75.00645668965313 44.44738269141001 H 0.0 **** 0.06
37200 H 112.0561784970051 76.74147111410593 44.29883011451156 H 0.0 **** 0.06
37201 C 58.66273403766771 82.63700871920224 29.316065958289244 C 0.0 **** -0.24
37202 H 57.74180824569337 83.2191772032665 29.341223587220156 H 0.0 **** 0.06
37203 H 58.43211922673098 81.60157636306292 29.067451842889113 H 0.0 **** 0.06
37204 H 59.14362275828865 82.67792454428121 30.29360437002589 H 0.0 **** 0.06
37205 H 59.33358357586821 83.05092681053759 28.563853854739932 H 0.0 **** 0.06
37206 C 54.719862794449995 16.03447519565252 87.97425051344243 C 0.0 **** -0.24
37207 H 54.59655158297625 15.663382863808508 86.95692057522623 H 0.0 **** 0.06
37208 H 53.74409345879738 16.280641719121462 88.39221055578273 H 0.0 **** 0.06
37209 H 55.347126551851744 16.92610631962829 87.96278163459863 H 0.0 **** 0.06
37210 H 55.19371524086881 15.265158027134845 88.58527623768467 H 0.0 **** 0.06
37211 C 110.4982025231121 89.75171186887664 50.383183957528445 C 0.0 **** -0.24
37212 H 109.78504991570172 90.34225437431152 50.959324880814194 H 0.0 **** 0.06
37213 H 111.14017778367256 89.1929823916328 51.06428713034671 H 0.0 **** 0.06
37214 H 111.10682227416068 90.41585375776745 49.77021993728138 H 0.0 **** 0.06
37215 H 109.95744694274532 89.05672852075952 49.73994294607442 H 0.0 **** 0.06
37216 C 50.75451688255879 33.42370533634096 79.16108273118363 C 0.0 **** -0.24
37217 H 50.10722771086111 33.991306885644136 79.82978715878528 H 0.0 **** 0.06
37218 H 51.50359773811908 34.089173132576164 78.73039612733555 H 0.0 **** 0.06
37219 H 50.15643928527365 32.98409796410009 78.36267497017565 H 0.0 **** 0.06
37220 H 51.250627182837974 32.63121447105995 79.72163442741902 H 0.0 **** 0.06
37221 C 67.4657685727446 87.83973164966761 5.54609664100127 C 0.0 **** -0.24
37222 H 66.76980894403687 87.00925289555207 5.432116098939616 H 0.0 **** 0.06
37223 H 68.29299528369862 87.71957642690273 4.8458844346543515 H 0.0 **** 0.06
37224 H 67.85174204886087 87.85313704797844 6.565065297956664 H 0.0 **** 0.06
37225 H 66.94879189265811 88.77668912595882 5.340395028109526 H 0.0 **** 0.06
37226 C 62.57508011097212 5.6858004914899425 24.556659149421424 C 0.0 **** -0.24
37227 H 63.16131681789803 5.037078249776016 25.207506571671637 H 0.0 **** 0.06
37228 H 62.579367682707606 5.283300165203514 23.54393042573209 H 0.0 **** 0.06
37229 H 63.010809532714426 6.685726949769105 24.553278208066075 H 0.0 **** 0.06
37230 H 61.550932629240414 5.737135298155522 24.923808930094864 H 0.0 **** 0.06
37231 C 63.469092095910845 34.76080694181678 2.4773989546162767 C 0.0 **** -0.24
37232 H 63.823968867401994 34.0451514339706 3.2192729884749127 H 0.0 **** 0.06
37233 H 62.382944911943646 34.83773649454827 2.537445543765884 H 0.0 **** 0.06
37234 H 63.7545500399275 34.42157379968785 1.481004906623781 H 0.0 **** 0.06
37235 H 63.91478539473541 35.73582656725512 2.671284319556989 H 0.0 **** 0.06
37236 C 13.009925963792028 106.68564065785523 101.06908623129573 C 0.0 **** -0.24
37237 H 14.004783411610305 107.11024990286396 100.93157228643398 H 0.0 **** 0.06
37238 H 13.096937577349422 105.62262160734224 101.29338258652066 H 0.0 **** 0.06
37239 H 12.42861961445115 106.81965406324927 100.15681394412599 H 0.0 **** 0.06
37240 H 12.511021660227499 107.1924910144501 101.89505390453306 H 0.0 **** 0.06
37241 C 34.0685008695892 46.88520242572767 39.86000822532256 C 0.0 **** -0.24
37242 H 34.62780652745036 47.314635999253284 40.69192315227582 H 0.0 **** 0.06
37243 H 33.523815867767354 47.675063124104184 39.34255897396446 H 0.0 **** 0.06
37244 H 33.36365342660082 46.14588076538175 40.240310671555136 H 0.0 **** 0.06
37245 H 34.75987176977807 46.40540588963458 39.167153290872676 H 0.0 **** 0.06
37246 C 15.297735122697588 87.74990400609474 96.87350328905862 C 0.0 **** -0.24
37247 H 14.212720109543909 87.73275918133669 96.7721235552539 H 0.0 **** 0.06
37248 H 15.56642214373096 87.6537441672358 97.92547570259953 H 0.0 **** 0.06
37249 H 15.683619177070454 88.69292871254225 96.48424838396073 H 0.0 **** 0.06
37250 H 15.727916790055588 86.92220581560636 96.30996464235133 H 0.0 **** 0.06
37251 C 65.35633820250439 5.05909276712346 109.31232244711899 C 0.0 **** -0.24
37252 H 64.72626354413273 4.279885884001146 108.88298927866126 H 0.0 **** 0.06
37253 H 66.1953897933904 5.256726011781922 108.64411439471982 H 0.0 **** 0.06
37254 H 65.7323517140444 4.730255522720782 110.28064070166971 H 0.0 **** 0.06
37255 H 64.77068474753526 5.97025341077989 109.43954577373205 H 0.0 **** 0.06
37256 C 51.00231357118906 77.53357763928713 76.19742958661831 C 0.0 **** -0.24
37257 H 52.07629317526842 77.42856324435067 76.34662777086538 H 0.0 **** 0.06
37258 H 50.54863603684526 76.54604145154221 76.11139248803445 H 0.0 **** 0.06
37259 H 50.81573090336292 78.09978059103912 75.28367160836618 H 0.0 **** 0.06
37260 H 50.56695282436442 78.06078546217404 77.0464244813898 H 0.0 **** 0.06
37261 C 34.88187038231047 11.290080979233782 27.955034575315068 C 0.0 **** -0.24
37262 H 34.45987118276787 11.925096461384175 27.176494681770322 H 0.0 **** 0.06
37263 H 34.53837875641415 10.265194344983545 27.812734507124787 H 0.0 **** 0.06
37264 H 34.5572323100545 11.649329101818292 28.93171226632242 H 0.0 **** 0.06
37265 H 35.96977636009731 11.320640428860461 27.898962606210887 H 0.0 **** 0.06
37266 C 34.8899455839931 100.212423522698 96.22535880045609 C 0.0 **** -0.24
37267 H 35.911527445287106 100.59188932716089 96.20723188381112 H 0.0 **** 0.06
37268 H 34.81132964307142 99.41756000623727 96.96675807798107 H 0.0 **** 0.06
37269 H 34.63099848149818 99.8204265725389 95.24131549196449 H 0.0 **** 0.06
37270 H 34.206525871537735 101.02128304648073 96.48490684986834 H 0.0 **** 0.06
37271 C 19.73875006070054 76.0171628552151 9.978831967156594 C 0.0 **** -0.24
37272 H 18.996745031895728 76.81044382695026 10.072021302497092 H 0.0 **** 0.06
37273 H 20.57865420939487 76.22622258227048 10.643281051000969 H 0.0 **** 0.06
37274 H 20.09300102841965 75.97017293026875 8.948797200311077 H 0.0 **** 0.06
37275 H 19.28708425025914 75.06374695012562 10.25265032004495 H 0.0 **** 0.06
37276 C 30.552486052535073 47.26295548858914 61.43079320017054 C 0.0 **** -0.24
37277 H 30.731777635905246 47.20778326015858 60.35743450110169 H 0.0 **** 0.06
37278 H 31.495117020969587 47.139782444071045 61.96381912200275 H 0.0 **** 0.06
37279 H 29.862011388969734 46.47249608635494 61.725112869804946 H 0.0 **** 0.06
37280 H 30.12006313033794 48.23277962736344 61.676906887168656 H 0.0 **** 0.06
37281 C 65.14380907889637 54.56678313421394 19.624682761713473 C 0.0 **** -0.24
37282 H 65.41886165775128 54.0487720694307 20.542981165076867 H 0.0 **** 0.06
37283 H 65.25544951036517 53.88895417409781 18.777994658600903 H 0.0 **** 0.06
37284 H 65.79450770672014 55.431021654901954 19.48642741754952 H 0.0 **** 0.06
37285 H 64.10813504704265 54.89827523999483 19.691132790821143 H 0.0 **** 0.06
37286 C 63.67019654658343 9.315444583118676 34.236329165317755 C 0.0 **** -0.24
37287 H 63.70526457731129 8.540683793256335 35.00327142595174 H 0.0 **** 0.06
37288 H 64.39140228626681 10.097281015205112 34.47751487761778 H 0.0 **** 0.06
37289 H 62.66847688584719 9.742643145676539 34.1981262947493 H 0.0 **** 0.06
37290 H 63.9167262234029 8.879172562189979 33.268602859149325 H 0.0 **** 0.06
37291 C 53.895249117688195 40.10215174647868 34.10072988050678 C 0.0 **** -0.24
37292 H 53.93377702662265 39.380103285528605 33.28428754665566 H 0.0 **** 0.06
37293 H 53.29310736810932 40.959331385420825 33.798721942633165 H 0.0 **** 0.06
37294 H 54.90567502222207 40.433381897784216 34.34103694678713 H 0.0 **** 0.06
37295 H 53.447953675292574 39.6343877254906 34.97720003937075 H 0.0 **** 0.06
37296 C 72.32265216846884 58.49972265668888 108.38673789892465 C 0.0 **** -0.24
37297 H 72.41346577152578 58.89317294986635 107.37413918115033 H 0.0 **** 0.06
37298 H 71.34263141334685 58.75549452055797 108.78940458129729 H 0.0 **** 0.06
37299 H 73.09931127396476 58.93274748623595 109.0161268477922 H 0.0 **** 0.06
37300 H 72.43525322264443 57.41547640623539 108.3662807765651 H 0.0 **** 0.06
37301 C 110.04533807246887 76.61130882488749 30.94324714107924 C 0.0 **** -0.24
37302 H 110.22387777115291 76.00381237145123 30.056802023790937 H 0.0 **** 0.06
37303 H 109.63603499513461 77.57676189258817 30.645304577084573 H 0.0 **** 0.06
37304 H 110.98500769613182 76.7635857898654 31.47383275199968 H 0.0 **** 0.06
37305 H 109.33706023277328 76.10163631426187 31.59651035572071 H 0.0 **** 0.06
37306 C 27.196986352201833 76.10361041389046 91.69850767833944 C 0.0 **** -0.24
37307 H 26.667972189948557 75.53872561249364 92.46623001156786 H 0.0 **** 0.06
37308 H 27.560160562545235 75.4197373965128 90.93061208429714 H 0.0 **** 0.06
37309 H 28.04104929172388 76.62594661769924 92.14965075320973 H 0.0 **** 0.06
37310 H 26.518920934727532 76.82831387914166 91.24927667811806 H 0.0 **** 0.06
37311 C 88.29919954749693 92.18292029698756 7.404067292834242 C 0.0 **** -0.24
37312 H 87.7916135124392 92.84261709319918 6.6993737286169335 H 0.0 **** 0.06
37313 H 89.19202900603355 92.67789199641726 7.7861510087415695 H 0.0 **** 0.06
37314 H 88.58227425868515 91.25958635291846 6.8977624662312 H 0.0 **** 0.06
37315 H 87.6278790962393 91.95209265895272 8.231666765208558 H 0.0 **** 0.06
37316 C 20.59147457471505 33.692177756586034 63.37859083360132 C 0.0 **** -0.24
37317 H 20.88763148865189 34.304627089297185 62.527056761373785 H 0.0 **** 0.06
37318 H 20.402912733388916 32.67251995715358 63.043289819529036 H 0.0 **** 0.06
37319 H 19.683981536025556 34.10327530028937 63.82212735992579 H 0.0 **** 0.06
37320 H 21.390269312959845 33.69035613235047 64.11954223541233 H 0.0 **** 0.06
37321 C 62.70315963991866 108.88608595401439 65.14156149464975 C 0.0 **** -0.24
37322 H 62.13338607311602 107.96501231818951 65.02016211231566 H 0.0 **** 0.06
37323 H 63.68088237631216 108.6550449840426 65.56569564033546 H 0.0 **** 0.06
37324 H 62.16666622254878 109.55947940914393 65.81080922032766 H 0.0 **** 0.06
37325 H 62.83185355089031 109.36403954964965 64.170202316879 H 0.0 **** 0.06
37326 C 76.96779519355752 93.58476195906275 98.32914563171525 C 0.0 **** -0.24
37327 H 77.00610127226355 94.26501593212356 97.47747982394094 H 0.0 **** 0.06
37328 H 77.76462878549324 92.84626331199527 98.24021098059623 H 0.0 **** 0.06
37329 H 76.0023709192215 93.07888290336419 98.34516897650099 H 0.0 **** 0.06
37330 H 77.09720288907366 94.15078454414254 99.2513508378245 H 0.0 **** 0.06
37331 C 41.31211525957764 96.54175143634248 48.42875857011497 C 0.0 **** -0.24
37332 H 42.347516349632265 96.46144665860322 48.09614892869613 H 0.0 **** 0.06
37333 H 41.246192353052166 96.25459642325805 49.47828206673324 H 0.0 **** 0.06
37334 H 40.68663638357344 95.87869607236894 47.830304560728955 H 0.0 **** 0.06
37335 H 40.97041028149573 97.5699165648389 48.30983606594869 H 0.0 **** 0.06
37336 C 75.26263640917387 20.909267603826834 105.33594503742148 C 0.0 **** -0.24
37337 H 75.73624511000813 21.13156901899393 104.37997995433722 H 0.0 **** 0.06
37338 H 75.64698492272103 21.588031869228416 106.09754447490317 H 0.0 **** 0.06
37339 H 75.48365239866064 19.88120262056512 105.61995668739954 H 0.0 **** 0.06
37340 H 74.18453199012652 21.03821555989191 105.24509557830521 H 0.0 **** 0.06
37341 C 45.97701864167499 60.29817128695737 2.9845270425019237 C 0.0 **** -0.24
37342 H 45.81126172510761 60.2777608844832 4.06155742161144 H 0.0 **** 0.06
37343 H 45.53228257876677 61.201274960587114 2.566327343018017 H 0.0 **** 0.06
37344 H 45.51649077595961 59.42140126575612 2.528963854207049 H 0.0 **** 0.06
37345 H 47.048580331533856 60.29259007408808 2.7820280265456603 H 0.0 **** 0.06
37346 C 55.780158807594205 78.30776214795276 22.796160397353702 C 0.0 **** -0.24
37347 H 56.81188698835422 77.95691789777254 22.837327470373875 H 0.0 **** 0.06
37348 H 55.74673054135468 79.36579567820093 23.057642779683 H 0.0 **** 0.06
37349 H 55.17510659157932 77.7393733897901 23.501118064667658 H 0.0 **** 0.06
37350 H 55.389940874083834 78.1698183806887 21.78825821063732 H 0.0 **** 0.06
37351 C 33.29653849297108 88.19564981910801 77.49860233248879 C 0.0 **** -0.24
37352 H 32.6092340907432 89.01905975435022 77.69436024808945 H 0.0 **** 0.06
37353 H 33.73937894512278 88.31977140998185 76.51029389699264 H 0.0 **** 0.06
37354 H 32.751758206951365 87.25210747989533 77.53710828811484 H 0.0 **** 0.06
37355 H 34.082812858280306 88.19197304437759 78.25235918742979 H 0.0 **** 0.06
37356 C 88.02517243586695 105.10579331708976 72.10403255744217 C 0.0 **** -0.24
37357 H 87.9265167770902 105.53649331301841 73.10041499363157 H 0.0 **** 0.06
37358 H 87.76216107556976 104.04821713793956 72.13921896783893 H 0.0 **** 0.06
37359 H 89.05419241966825 105.21385897956426 71.76151677318472 H 0.0 **** 0.06
37360 H 87.3571011026587 105.62503867479788 71.41705196879516 H 0.0 **** 0.06
37361 C 27.18531780724515 67.90924300383188 2.917822912748562 C 0.0 **** -0.24
37362 H 26.192800170714193 68.07299938391856 2.4976408103697594 H 0.0 **** 0.06
37363 H 27.11849562489384 67.87528878752624 4.004943080779626 H 0.0 **** 0.06
37364 H 27.845358951449754 68.72357354451009 2.619030600140462 H 0.0 **** 0.06
37365 H 27.584973199257234 66.96420323989213 2.548652411300907 H 0.0 **** 0.06
37366 C 101.80437795250492 98.44876526343222 69.55293809771757 C 0.0 **** -0.24
37367 H 102.76170970979405 98.22612515862176 69.08159778937838 H 0.0 **** 0.06
37368 H 101.32973836609108 97.51865817605562 69.86574389357358 H 0.0 **** 0.06
37369 H 101.16002745739962 98.9638635508872 68.84077690818594 H 0.0 **** 0.06
37370 H 101.96654125569273 99.08440899613635 70.4227825858888 H 0.0 **** 0.06
37371 C 107.7043776054798 70.00918054560273 61.63261666799161 C 0.0 **** -0.24
37372 H 107.05877039204924 69.34221725224253 62.20406192907927 H 0.0 **** 0.06
37373 H 108.10233362438873 70.7815540198836 62.291664222696284 H 0.0 **** 0.06
37374 H 107.12751544718469 70.47459858614758 60.83339924496954 H 0.0 **** 0.06
37375 H 108.5267337514066 69.43874587478172 61.20243302458164 H 0.0 **** 0.06
37376 C 56.60544131131003 74.0452181784444 44.249863327798934 C 0.0 **** -0.24
37377 H 57.339430839210124 74.09687499464223 45.053775830661884 H 0.0 **** 0.06
37378 H 56.84963120425372 73.2138722362117 43.5882209510005 H 0.0 **** 0.06
37379 H 56.62007788224113 74.97662485711777 43.68485032324675 H 0.0 **** 0.06
37380 H 55.613125515875126 73.89370323996096 44.67477623733314 H 0.0 **** 0.06
37381 C 32.252675808298164 45.064491660994406 64.19773908324885 C 0.0 **** -0.24
37382 H 32.74472338179751 45.23376392953912 63.239968508728 H 0.0 **** 0.06
37383 H 32.901318369237714 44.46585565903615 64.83779313795253 H 0.0 **** 0.06
37384 H 31.313028303989228 44.536556836872535 64.03525284967861 H 0.0 **** 0.06
37385 H 32.05357753023955 46.02327984697331 64.6779708618692 H 0.0 **** 0.06
37386 C 103.072894826229 77.16796501592134 23.3107844522566 C 0.0 **** -0.24
37387 H 103.62525587758958 76.45550064512128 22.69780305046399 H 0.0 **** 0.06
37388 H 102.62136680106408 77.92571456136398 22.66970371466107 H 0.0 **** 0.06
37389 H 103.75389904503416 77.64580820355235 24.015607533323646 H 0.0 **** 0.06
37390 H 102.29080348699173 76.64391942566817 23.86033040742643 H 0.0 **** 0.06
37391 C 62.454860895104595 10.509924906182903 41.85859577574489 C 0.0 **** -0.24
37392 H 62.57317651788568 10.921715000208394 40.855786330425985 H 0.0 **** 0.06
37393 H 63.31643425247031 10.783220139979107 42.467716823242 H 0.0 **** 0.06
37394 H 62.38113056178998 9.424008453080432 41.79860666951831 H 0.0 **** 0.06
37395 H 61.547283517796735 10.91059763513175 42.31028268822723 H 0.0 **** 0.06
37396 C 98.11306238637502 48.241598801637906 85.71073232350633 C 0.0 **** -0.24
37397 H 98.14133599426387 49.03424589255974 86.45849671813531 H 0.0 **** 0.06
37398 H 98.97731461120486 47.58974968153035 85.84016660792489 H 0.0 **** 0.06
37399 H 98.13509779623345 48.68153417345866 84.71379266207418 H 0.0 **** 0.06
37400 H 97.19803300064228 47.66083949609782 85.83241762963144 H 0.0 **** 0.06
37401 C 10.344311266334415 39.6865053214314 35.59521401288842 C 0.0 **** -0.24
37402 H 9.980527054183838 38.678993338962044 35.802250641485585 H 0.0 **** 0.06
37403 H 11.39723668175614 39.64319107915696 35.31754098773578 H 0.0 **** 0.06
37404 H 10.227032800745292 40.30399792725473 36.48583292214403 H 0.0 **** 0.06
37405 H 9.768716678027118 40.11820771443601 34.775874428819805 H 0.0 **** 0.06
37406 C 40.90172162325172 7.301377226618735 18.287112223748437 C 0.0 **** -0.24
37407 H 41.07049461378739 7.7831985208061205 19.250239066987717 H 0.0 **** 0.06
37408 H 40.013633361085624 7.7258950981324315 17.818340171588034 H 0.0 **** 0.06
37409 H 40.75759524150919 6.230951190101944 18.437382435121606 H 0.0 **** 0.06
37410 H 41.76612641469649 7.463817463284148 17.64308821041763 H 0.0 **** 0.06
37411 C 23.130803148509244 94.70654007186789 66.42113278834717 C 0.0 **** -0.24
37412 H 22.791505771383868 95.49620202792852 67.09144888513967 H 0.0 **** 0.06
37413 H 24.2039381637436 94.55814032998484 66.54855039314626 H 0.0 **** 0.06
37414 H 22.922121566720335 94.99034110357732 65.39027815022223 H 0.0 **** 0.06
37415 H 22.60591797308959 93.78028507448167 66.65637662201524 H 0.0 **** 0.06
37416 C 48.325921173677386 89.49322466766574 82.74255149313072 C 0.0 **** -0.24
37417 H 47.42348175158543 89.91117548213305 83.18814948399347 H 0.0 **** 0.06
37418 H 48.81009163389311 90.24966136611187 82.12395958983848 H 0.0 **** 0.06
37419 H 48.06239361960712 88.63357679793907 82.12682255322059 H 0.0 **** 0.06
37420 H 49.00844332495848 89.17855645671398 83.5319587485103 H 0.0 **** 0.06
37421 C 82.05502711254877 77.01473289499867 111.11277073733308 C 0.0 **** -0.24
37422 H 81.29154505905603 76.26716652004 111.33133226108802 H 0.0 **** 0.06
37423 H 81.63621575767326 77.78093432595563 110.46044198575366 H 0.0 **** 0.06
37424 H 82.90012155786172 76.53678608135814 110.61786207876038 H 0.0 **** 0.06
37425 H 82.39019259839503 77.47339169957453 112.04355354879874 H 0.0 **** 0.06
37426 C 77.5541861713387 50.86530152886942 19.43501733497206 C 0.0 **** -0.24
37427 H 78.49673800213088 50.56245318756433 19.89098258997339 H 0.0 **** 0.06
37428 H 76.75859550385712 50.81404873610356 20.178833221698397 H 0.0 **** 0.06
37429 H 77.32123136419614 50.197808629512 18.605939760337662 H 0.0 **** 0.06
37430 H 77.64169420231221 51.88687205473073 19.065620024313716 H 0.0 **** 0.06
37431 C 58.43606026273045 7.178792924288729 18.27039119155404 C 0.0 **** -0.24
37432 H 57.699014195990856 6.377705399685738 18.210280536395857 H 0.0 **** 0.06
37433 H 59.1339049315186 6.968728495561265 19.0820729321635 H 0.0 **** 0.06
37434 H 57.929215337247626 8.124610473080509 18.46213524688119 H 0.0 **** 0.06
37435 H 58.98040677509539 7.241443269185822 17.32905272988512 H 0.0 **** 0.06
37436 C 42.384562178006206 59.146466985266756 19.02050088553969 C 0.0 **** -0.24
37437 H 41.866517747492935 59.935005621297336 19.566587135658665 H 0.0 **** 0.06
37438 H 42.295590780529935 59.32775617370643 17.948992249910418 H 0.0 **** 0.06
37439 H 41.93766260703359 58.18206777015456 19.264352032874797 H 0.0 **** 0.06
37440 H 43.437604521848286 59.140689082061755 19.30173179256846 H 0.0 **** 0.06
37441 C 110.16834964135938 44.359837510198076 107.64933634638717 C 0.0 **** -0.24
37442 H 111.18258038332817 44.02104659351181 107.43939094038967 H 0.0 **** 0.06
37443 H 109.6173636925601 43.56602090707175 108.15526041632592 H 0.0 **** 0.06
37444 H 109.66874937551788 44.60995695252851 106.71308463659538 H 0.0 **** 0.06
37445 H 110.20451888334733 45.24221674536761 108.28863290454869 H 0.0 **** 0.06
37446 C 108.94907223062131 1.993402518846807 15.860253189172653 C 0.0 **** -0.24
37447 H 108.28765832244663 2.785336200805091 15.507100041656315 H 0.0 **** 0.06
37448 H 109.8262199186777 1.9386609076128423 15.216368405274011 H 0.0 **** 0.06
37449 H 108.41937432654757 1.0403668174591587 15.83586982357241 H 0.0 **** 0.06
37450 H 109.2601007052859 2.2098026574811627 16.881944247643162 H 0.0 **** 0.06
37451 C 47.240505781273754 25.173579848788478 37.2239239000325 C 0.0 **** -0.24
37452 H 47.65438587008188 25.781737935216114 36.42016749960465 H 0.0 **** 0.06
37453 H 46.4384360568437 24.548160734187178 36.82996506110294 H 0.0 **** 0.06
37454 H 46.84554649185816 25.822822609492505 38.00440279471983 H 0.0 **** 0.06
37455 H 48.02409647773632 24.53957707432116 37.64031141543993 H 0.0 **** 0.06
37456 C 81.0169121117813 63.0300518479753 44.833115253880635 C 0.0 **** -0.24
37457 H 81.81553224433497 63.06897578062444 45.57409987995334 H 0.0 **** 0.06
37458 H 81.1684145877245 62.17027582793398 44.18067861324988 H 0.0 **** 0.06
37459 H 81.02885827746894 63.94421175386876 44.23925469119584 H 0.0 **** 0.06
37460 H 80.056531700888 62.937649446501126 45.33958105834364 H 0.0 **** 0.06
37461 C 9.54064452324377 11.449462742033603 52.21274680426122 C 0.0 **** -0.24
37462 H 10.266703196522059 11.2354293742534 52.99711974895715 H 0.0 **** 0.06
37463 H 8.793436491273837 12.146945432059141 52.590804237217604 H 0.0 **** 0.06
37464 H 9.053907469272644 10.524278439897856 51.90524493549887 H 0.0 **** 0.06
37465 H 10.05148321809277 11.893231531559195 51.357433086766086 H 0.0 **** 0.06
37466 C 67.38754060207893 28.951759808145574 44.621627830983584 C 0.0 **** -0.24
37467 H 67.5035767612371 27.867628082329574 44.61855521180685 H 0.0 **** 0.06
37468 H 67.77642266070458 29.354861772241804 45.55670747479181 H 0.0 **** 0.06
37469 H 66.33216553523167 29.204202303122884 44.526551237958245 H 0.0 **** 0.06
37470 H 67.94011239215152 29.37801730532358 43.78438154254282 H 0.0 **** 0.06
37471 C 36.258051480103575 38.51976570370698 51.99444285619862 C 0.0 **** -0.24
37472 H 36.53403683535009 39.53940446682395 52.262618630855144 H 0.0 **** 0.06
37473 H 35.18825254254358 38.47404300845895 51.793104829425516 H 0.0 **** 0.06
37474 H 36.50279382146806 37.84845371446406 52.81717170074276 H 0.0 **** 0.06
37475 H 36.80916841059832 38.217719980428825 51.10364999547667 H 0.0 **** 0.06
37476 C 71.66653341397455 99.03474733343381 88.79712312849273 C 0.0 **** -0.24
37477 H 72.72640470114177 98.78161522196575 88.80495526033158 H 0.0 **** 0.06
37478 H 71.47268898856441 99.81102030038363 89.53897563834553 H 0.0 **** 0.06
37479 H 71.07939124852828 98.14800576181511 89.03689151042894 H 0.0 **** 0.06
37480 H 71.3870672277281 99.39859835676953 87.80928236598893 H 0.0 **** 0.06
37481 C 3.293604060300627 22.488868471003286 35.77266926824129 C 0.0 **** -0.24
37482 H 2.6365042632862075 21.953354685748167 35.087648673233446 H 0.0 **** 0.06
37483 H 4.08165442077005 22.98520118872696 35.20593839916904 H 0.0 **** 0.06
37484 H 3.737802534528887 21.783382602667302 36.474297909018304 H 0.0 **** 0.06
37485 H 2.7159455155963244 23.233414813998763 36.32087157101341 H 0.0 **** 0.06
37486 C 103.33037132201449 10.11901847093091 6.819288342166942 C 0.0 **** -0.24
37487 H 103.87752376132622 9.229877019881854 6.506647886335003 H 0.0 **** 0.06
37488 H 103.22268089296043 10.796046379170548 5.970980935031577 H 0.0 **** 0.06
37489 H 103.87705790848136 10.620162610330567 7.617209163595902 H 0.0 **** 0.06
37490 H 102.34367939084973 9.828968764095407 7.181499102233374 H 0.0 **** 0.06
37491 C 40.61071128756822 96.66036288144682 58.79246286298243 C 0.0 **** -0.24
37492 H 39.55744387863166 96.81391536202943 58.55748457834835 H 0.0 **** 0.06
37493 H 40.772968851171214 95.61851568481853 59.06936774071377 H 0.0 **** 0.06
37494 H 40.8946129456767 97.30633190117169 59.62427676015275 H 0.0 **** 0.06
37495 H 41.21691007105886 96.90427655382896 57.920350763705585 H 0.0 **** 0.06
37496 C 77.86520794999456 8.186113436463353 58.32922213074971 C 0.0 **** -0.24
37497 H 78.91092374151842 8.269912098351554 58.03338323005477 H 0.0 **** 0.06
37498 H 77.22999279962198 8.290286030384124 57.449684090782114 H 0.0 **** 0.06
37499 H 77.62689991031385 8.973322287055023 59.04487842022661 H 0.0 **** 0.06
37500 H 77.69410710998338 7.213072052158793 58.78845877258098 H 0.0 **** 0.06
@<TRIPOS>BOND
1 1 2 28
2 1 3 28
3 1 4 28
4 1 5 28
5 6 7 28
6 6 8 28
7 6 9 28
8 6 10 28
9 11 12 28
10 11 13 28
11 11 14 28
12 11 15 28
13 16 17 28
14 16 18 28
15 16 19 28
16 16 20 28
17 21 22 28
18 21 23 28
19 21 24 28
20 21 25 28
21 26 27 28
22 26 28 28
23 26 29 28
24 26 30 28
25 31 32 28
26 31 33 28
27 31 34 28
28 31 35 28
29 36 37 28
30 36 38 28
31 36 39 28
32 36 40 28
33 41 42 28
34 41 43 28
35 41 44 28
36 41 45 28
37 46 47 28
38 46 48 28
39 46 49 28
40 46 50 28
41 51 52 28
42 51 53 28
43 51 54 28
44 51 55 28
45 56 57 28
46 56 58 28
47 56 59 28
48 56 60 28
49 61 62 28
50 61 63 28
51 61 64 28
52 61 65 28
53 66 67 28
54 66 68 28
55 66 69 28
56 66 70 28
57 71 72 28
58 71 73 28
59 71 74 28
60 71 75 28
61 76 77 28
62 76 78 28
63 76 79 28
64 76 80 28
65 81 82 28
66 81 83 28
67 81 84 28
68 81 85 28
69 86 87 28
70 86 88 28
71 86 89 28
72 86 90 28
73 91 92 28
74 91 93 28
75 91 94 28
76 91 95 28
77 96 97 28
78 96 98 28
79 96 99 28
80 96 100 28
81 101 102 28
82 101 103 28
83 101 104 28
84 101 105 28
85 106 107 28
86 106 108 28
87 106 109 28
88 106 110 28
89 111 112 28
90 111 113 28
91 111 114 28
92 111 115 28
93 116 117 28
94 116 118 28
95 116 119 28
96 116 120 28
97 121 122 28
98 121 123 28
99 121 124 28
100 121 125 28
101 126 127 28
102 126 128 28
103 126 129 28
104 126 130 28
105 131 132 28
106 131 133 28
107 131 134 28
108 131 135 28
109 136 137 28
110 136 138 28
111 136 139 28
112 136 140 28
113 141 142 28
114 141 143 28
115 141 144 28
116 141 145 28
117 146 147 28
118 146 148 28
119 146 149 28
120 146 150 28
121 151 152 28
122 151 153 28
123 151 154 28
124 151 155 28
125 156 157 28
126 156 158 28
127 156 159 28
128 156 160 28
129 161 162 28
130 161 163 28
131 161 164 28
132 161 165 28
133 166 167 28
134 166 168 28
135 166 169 28
136 166 170 28
137 171 172 28
138 171 173 28
139 171 174 28
140 171 175 28
141 176 177 28
142 176 178 28
143 176 179 28
144 176 180 28
145 181 182 28
146 181 183 28
147 181 184 28
148 181 185 28
149 186 187 28
150 186 188 28
151 186 189 28
152 186 190 28
153 191 192 28
154 191 193 28
155 191 194 28
156 191 195 28
157 196 197 28
158 196 198 28
159 196 199 28
160 196 200 28
161 201 202 28
162 201 203 28
163 201 204 28
164 201 205 28
165 206 207 28
166 206 208 28
167 206 209 28
168 206 210 28
169 211 212 28
170 211 213 28
171 211 214 28
172 211 215 28
173 216 217 28
174 216 218 28
175 216 219 28
176 216 220 28
177 221 222 28
178 221 223 28
179 221 224 28
180 221 225 28
181 226 227 28
182 226 228 28
183 226 229 28
184 226 230 28
185 231 232 28
186 231 233 28
187 231 234 28
188 231 235 28
189 236 237 28
190 236 238 28
191 236 239 28
192 236 240 28
193 241 242 28
194 241 243 28
195 241 244 28
196 241 245 28
197 246 247 28
198 246 248 28
199 246 249 28
200 246 250 28
201 251 252 28
202 251 253 28
203 251 254 28
204 251 255 28
205 256 257 28
206 256 258 28
207 256 259 28
208 256 260 28
209 261 262 28
210 261 263 28
211 261 264 28
212 261 265 28
213 266 267 28
214 266 268 28
215 266 269 28
216 266 270 28
217 271 272 28
218 271 273 28
219 271 274 28
220 271 275 28
221 276 277 28
222 276 278 28
223 276 279 28
224 276 280 28
225 281 282 28
226 281 283 28
227 281 284 28
228 281 285 28
229 286 287 28
230 286 288 28
231 286 289 28
232 286 290 28
233 291 292 28
234 291 293 28
235 291 294 28
236 291 295 28
237 296 297 28
238 296 298 28
239 296 299 28
240 296 300 28
241 301 302 28
242 301 303 28
243 301 304 28
244 301 305 28
245 306 307 28
246 306 308 28
247 306 309 28
248 306 310 28
249 311 312 28
250 311 313 28
251 311 314 28
252 311 315 28
253 316 317 28
254 316 318 28
255 316 319 28
256 316 320 28
257 321 322 28
258 321 323 28
259 321 324 28
260 321 325 28
261 326 327 28
262 326 328 28
263 326 329 28
264 326 330 28
265 331 332 28
266 331 333 28
267 331 334 28
268 331 335 28
269 336 337 28
270 336 338 28
271 336 339 28
272 336 340 28
273 341 342 28
274 341 343 28
275 341 344 28
276 341 345 28
277 346 347 28
278 346 348 28
279 346 349 28
280 346 350 28
281 351 352 28
282 351 353 28
283 351 354 28
284 351 355 28
285 356 357 28
286 356 358 28
287 356 359 28
288 356 360 28
289 361 362 28
290 361 363 28
291 361 364 28
292 361 365 28
293 366 367 28
294 366 368 28
295 366 369 28
296 366 370 28
297 371 372 28
298 371 373 28
299 371 374 28
300 371 375 28
301 376 377 28
302 376 378 28
303 376 379 28
304 376 380 28
305 381 382 28
306 381 383 28
307 381 384 28
308 381 385 28
309 386 387 28
310 386 388 28
311 386 389 28
312 386 390 28
313 391 392 28
314 391 393 28
315 391 394 28
316 391 395 28
317 396 397 28
318 396 398 28
319 396 399 28
320 396 400 28
321 401 402 28
322 401 403 28
323 401 404 28
324 401 405 28
325 406 407 28
326 406 408 28
327 406 409 28
328 406 410 28
329 411 412 28
330 411 413 28
331 411 414 28
332 411 415 28
333 416 417 28
334 416 418 28
335 416 419 28
336 416 420 28
337 421 422 28
338 421 423 28
339 421 424 28
340 421 425 28
341 426 427 28
342 426 428 28
343 426 429 28
344 426 430 28
345 431 432 28
346 431 433 28
347 431 434 28
348 431 435 28
349 436 437 28
350 436 438 28
351 436 439 28
352 436 440 28
353 441 442 28
354 441 443 28
355 441 444 28
356 441 445 28
357 446 447 28
358 446 448 28
359 446 449 28
360 446 450 28
361 451 452 28
362 451 453 28
363 451 454 28
364 451 455 28
365 456 457 28
366 456 458 28
367 456 459 28
368 456 460 28
369 461 462 28
370 461 463 28
371 461 464 28
372 461 465 28
373 466 467 28
374 466 468 28
375 466 469 28
376 466 470 28
377 471 472 28
378 471 473 28
379 471 474 28
380 471 475 28
381 476 477 28
382 476 478 28
383 476 479 28
384 476 480 28
385 481 482 28
386 481 483 28
387 481 484 28
388 481 485 28
389 486 487 28
390 486 488 28
391 486 489 28
392 486 490 28
393 491 492 28
394 491 493 28
395 491 494 28
396 491 495 28
397 496 497 28
398 496 498 28
399 496 499 28
400 496 500 28
401 501 502 28
402 501 503 28
403 501 504 28
404 501 505 28
405 506 507 28
406 506 508 28
407 506 509 28
408 506 510 28
409 511 512 28
410 511 513 28
411 511 514 28
412 511 515 28
413 516 517 28
414 516 518 28
415 516 519 28
416 516 520 28
417 521 522 28
418 521 523 28
419 521 524 28
420 521 525 28
421 526 527 28
422 526 528 28
423 526 529 28
424 526 530 28
425 531 532 28
426 531 533 28
427 531 534 28
428 531 535 28
429 536 537 28
430 536 538 28
431 536 539 28
432 536 540 28
433 541 542 28
434 541 543 28
435 541 544 28
436 541 545 28
437 546 547 28
438 546 548 28
439 546 549 28
440 546 550 28
441 551 552 28
442 551 553 28
443 551 554 28
444 551 555 28
445 556 557 28
446 556 558 28
447 556 559 28
448 556 560 28
449 561 562 28
450 561 563 28
451 561 564 28
452 561 565 28
453 566 567 28
454 566 568 28
455 566 569 28
456 566 570 28
457 571 572 28
458 571 573 28
459 571 574 28
460 571 575 28
461 576 577 28
462 576 578 28
463 576 579 28
464 576 580 28
465 581 582 28
466 581 583 28
467 581 584 28
468 581 585 28
469 586 587 28
470 586 588 28
471 586 589 28
472 586 590 28
473 591 592 28
474 591 593 28
475 591 594 28
476 591 595 28
477 596 597 28
478 596 598 28
479 596 599 28
480 596 600 28
481 601 602 28
482 601 603 28
483 601 604 28
484 601 605 28
485 606 607 28
486 606 608 28
487 606 609 28
488 606 610 28
489 611 612 28
490 611 613 28
491 611 614 28
492 611 615 28
493 616 617 28
494 616 618 28
495 616 619 28
496 616 620 28
497 621 622 28
498 621 623 28
499 621 624 28
500 621 625 28
501 626 627 28
502 626 628 28
503 626 629 28
504 626 630 28
505 631 632 28
506 631 633 28
507 631 634 28
508 631 635 28
509 636 637 28
510 636 638 28
511 636 639 28
512 636 640 28
513 641 642 28
514 641 643 28
515 641 644 28
516 641 645 28
517 646 647 28
518 646 648 28
519 646 649 28
520 646 650 28
521 651 652 28
522 651 653 28
523 651 654 28
524 651 655 28
525 656 657 28
526 656 658 28
527 656 659 28
528 656 660 28
529 661 662 28
530 661 663 28
531 661 664 28
532 661 665 28
533 666 667 28
534 666 668 28
535 666 669 28
536 666 670 28
537 671 672 28
538 671 673 28
539 671 674 28
540 671 675 28
541 676 677 28
542 676 678 28
543 676 679 28
544 676 680 28
545 681 682 28
546 681 683 28
547 681 684 28
548 681 685 28
549 686 687 28
550 686 688 28
551 686 689 28
552 686 690 28
553 691 692 28
554 691 693 28
555 691 694 28
556 691 695 28
557 696 697 28
558 696 698 28
559 696 699 28
560 696 700 28
561 701 702 28
562 701 703 28
563 701 704 28
564 701 705 28
565 706 707 28
566 706 708 28
567 706 709 28
568 706 710 28
569 711 712 28
570 711 713 28
571 711 714 28
572 711 715 28
573 716 717 28
574 716 718 28
575 716 719 28
576 716 720 28
577 721 722 28
578 721 723 28
579 721 724 28
580 721 725 28
581 726 727 28
582 726 728 28
583 726 729 28
584 726 730 28
585 731 732 28
586 731 733 28
587 731 734 28
588 731 735 28
589 736 737 28
590 736 738 28
591 736 739 28
592 736 740 28
593 741 742 28
594 741 743 28
595 741 744 28
596 741 745 28
597 746 747 28
598 746 748 28
599 746 749 28
600 746 750 28
601 751 752 28
602 751 753 28
603 751 754 28
604 751 755 28
605 756 757 28
606 756 758 28
607 756 759 28
608 756 760 28
609 761 762 28
610 761 763 28
611 761 764 28
612 761 765 28
613 766 767 28
614 766 768 28
615 766 769 28
616 766 770 28
617 771 772 28
618 771 773 28
619 771 774 28
620 771 775 28
621 776 777 28
622 776 778 28
623 776 779 28
624 776 780 28
625 781 782 28
626 781 783 28
627 781 784 28
628 781 785 28
629 786 787 28
630 786 788 28
631 786 789 28
632 786 790 28
633 791 792 28
634 791 793 28
635 791 794 28
636 791 795 28
637 796 797 28
638 796 798 28
639 796 799 28
640 796 800 28
641 801 802 28
642 801 803 28
643 801 804 28
644 801 805 28
645 806 807 28
646 806 808 28
647 806 809 28
648 806 810 28
649 811 812 28
650 811 813 28
651 811 814 28
652 811 815 28
653 816 817 28
654 816 818 28
655 816 819 28
656 816 820 28
657 821 822 28
658 821 823 28
659 821 824 28
660 821 825 28
661 826 827 28
662 826 828 28
663 826 829 28
664 826 830 28
665 831 832 28
666 831 833 28
667 831 834 28
668 831 835 28
669 836 837 28
670 836 838 28
671 836 839 28
672 836 840 28
673 841 842 28
674 841 843 28
675 841 844 28
676 841 845 28
677 846 847 28
678 846 848 28
679 846 849 28
680 846 850 28
681 851 852 28
682 851 853 28
683 851 854 28
684 851 855 28
685 856 857 28
686 856 858 28
687 856 859 28
688 856 860 28
689 861 862 28
690 861 863 28
691 861 864 28
692 861 865 28
693 866 867 28
694 866 868 28
695 866 869 28
696 866 870 28
697 871 872 28
698 871 873 28
699 871 874 28
700 871 875 28
701 876 877 28
702 876 878 28
703 876 879 28
704 876 880 28
705 881 882 28
706 881 883 28
707 881 884 28
708 881 885 28
709 886 887 28
710 886 888 28
711 886 889 28
712 886 890 28
713 891 892 28
714 891 893 28
715 891 894 28
716 891 895 28
717 896 897 28
718 896 898 28
719 896 899 28
720 896 900 28
721 901 902 28
722 901 903 28
723 901 904 28
724 901 905 28
725 906 907 28
726 906 908 28
727 906 909 28
728 906 910 28
729 911 912 28
730 911 913 28
731 911 914 28
732 911 915 28
733 916 917 28
734 916 918 28
735 916 919 28
736 916 920 28
737 921 922 28
738 921 923 28
739 921 924 28
740 921 925 28
741 926 927 28
742 926 928 28
743 926 929 28
744 926 930 28
745 931 932 28
746 931 933 28
747 931 934 28
748 931 935 28
749 936 937 28
750 936 938 28
751 936 939 28
752 936 940 28
753 941 942 28
754 941 943 28
755 941 944 28
756 941 945 28
757 946 947 28
758 946 948 28
759 946 949 28
760 946 950 28
761 951 952 28
762 951 953 28
763 951 954 28
764 951 955 28
765 956 957 28
766 956 958 28
767 956 959 28
768 956 960 28
769 961 962 28
770 961 963 28
771 961 964 28
772 961 965 28
773 966 967 28
774 966 968 28
775 966 969 28
776 966 970 28
777 971 972 28
778 971 973 28
779 971 974 28
780 971 975 28
781 976 977 28
782 976 978 28
783 976 979 28
784 976 980 28
785 981 982 28
786 981 983 28
787 981 984 28
788 981 985 28
789 986 987 28
790 986 988 28
791 986 989 28
792 986 990 28
793 991 992 28
794 991 993 28
795 991 994 28
796 991 995 28
797 996 997 28
798 996 998 28
799 996 999 28
800 996 1000 28
801 1001 1002 28
802 1001 1003 28
803 1001 1004 28
804 1001 1005 28
805 1006 1007 28
806 1006 1008 28
807 1006 1009 28
808 1006 1010 28
809 1011 1012 28
810 1011 1013 28
811 1011 1014 28
812 1011 1015 28
813 1016 1017 28
814 1016 1018 28
815 1016 1019 28
816 1016 1020 28
817 1021 1022 28
818 1021 1023 28
819 1021 1024 28
820 1021 1025 28
821 1026 1027 28
822 1026 1028 28
823 1026 1029 28
824 1026 1030 28
825 1031 1032 28
826 1031 1033 28
827 1031 1034 28
828 1031 1035 28
829 1036 1037 28
830 1036 1038 28
831 1036 1039 28
832 1036 1040 28
833 1041 1042 28
834 1041 1043 28
835 1041 1044 28
836 1041 1045 28
837 1046 1047 28
838 1046 1048 28
839 1046 1049 28
840 1046 1050 28
841 1051 1052 28
842 1051 1053 28
843 1051 1054 28
844 1051 1055 28
845 1056 1057 28
846 1056 1058 28
847 1056 1059 28
848 1056 1060 28
849 1061 1062 28
850 1061 1063 28
851 1061 1064 28
852 1061 1065 28
853 1066 1067 28
854 1066 1068 28
855 1066 1069 28
856 1066 1070 28
857 1071 1072 28
858 1071 1073 28
859 1071 1074 28
860 1071 1075 28
861 1076 1077 28
862 1076 1078 28
863 1076 1079 28
864 1076 1080 28
865 1081 1082 28
866 1081 1083 28
867 1081 1084 28
868 1081 1085 28
869 1086 1087 28
870 1086 1088 28
871 1086 1089 28
872 1086 1090 28
873 1091 1092 28
874 1091 1093 28
875 1091 1094 28
876 1091 1095 28
877 1096 1097 28
878 1096 1098 28
879 1096 1099 28
880 1096 1100 28
881 1101 1102 28
882 1101 1103 28
883 1101 1104 28
884 1101 1105 28
885 1106 1107 28
886 1106 1108 28
887 1106 1109 28
888 1106 1110 28
889 1111 1112 28
890 1111 1113 28
891 1111 1114 28
892 1111 1115 28
893 1116 1117 28
894 1116 1118 28
895 1116 1119 28
896 1116 1120 28
897 1121 1122 28
898 1121 1123 28
899 1121 1124 28
900 1121 1125 28
901 1126 1127 28
902 1126 1128 28
903 1126 1129 28
904 1126 1130 28
905 1131 1132 28
906 1131 1133 28
907 1131 1134 28
908 1131 1135 28
909 1136 1137 28
910 1136 1138 28
911 1136 1139 28
912 1136 1140 28
913 1141 1142 28
914 1141 1143 28
915 1141 1144 28
916 1141 1145 28
917 1146 1147 28
918 1146 1148 28
919 1146 1149 28
920 1146 1150 28
921 1151 1152 28
922 1151 1153 28
923 1151 1154 28
924 1151 1155 28
925 1156 1157 28
926 1156 1158 28
927 1156 1159 28
928 1156 1160 28
929 1161 1162 28
930 1161 1163 28
931 1161 1164 28
932 1161 1165 28
933 1166 1167 28
934 1166 1168 28
935 1166 1169 28
936 1166 1170 28
937 1171 1172 28
938 1171 1173 28
939 1171 1174 28
940 1171 1175 28
941 1176 1177 28
942 1176 1178 28
943 1176 1179 28
944 1176 1180 28
945 1181 1182 28
946 1181 1183 28
947 1181 1184 28
948 1181 1185 28
949 1186 1187 28
950 1186 1188 28
951 1186 1189 28
952 1186 1190 28
953 1191 1192 28
954 1191 1193 28
955 1191 1194 28
956 1191 1195 28
957 1196 1197 28
958 1196 1198 28
959 1196 1199 28
960 1196 1200 28
961 1201 1202 28
962 1201 1203 28
963 1201 1204 28
964 1201 1205 28
965 1206 1207 28
966 1206 1208 28
967 1206 1209 28
968 1206 1210 28
969 1211 1212 28
970 1211 1213 28
971 1211 1214 28
972 1211 1215 28
973 1216 1217 28
974 1216 1218 28
975 1216 1219 28
976 1216 1220 28
977 1221 1222 28
978 1221 1223 28
979 1221 1224 28
980 1221 1225 28
981 1226 1227 28
982 1226 1228 28
983 1226 1229 28
984 1226 1230 28
985 1231 1232 28
986 1231 1233 28
987 1231 1234 28
988 1231 1235 28
989 1236 1237 28
990 1236 1238 28
991 1236 1239 28
992 1236 1240 28
993 1241 1242 28
994 1241 1243 28
995 1241 1244 28
996 1241 1245 28
997 1246 1247 28
998 1246 1248 28
999 1246 1249 28
1000 1246 1250 28
1001 1251 1252 28
1002 1251 1253 28
1003 1251 1254 28
1004 1251 1255 28
1005 1256 1257 28
1006 1256 1258 28
1007 1256 1259 28
1008 1256 1260 28
1009 1261 1262 28
1010 1261 1263 28
1011 1261 1264 28
1012 1261 1265 28
1013 1266 1267 28
1014 1266 1268 28
1015 1266 1269 28
1016 1266 1270 28
1017 1271 1272 28
1018 1271 1273 28
1019 1271 1274 28
1020 1271 1275 28
1021 1276 1277 28
1022 1276 1278 28
1023 1276 1279 28
1024 1276 1280 28
1025 1281 1282 28
1026 1281 1283 28
1027 1281 1284 28
1028 1281 1285 28
1029 1286 1287 28
1030 1286 1288 28
1031 1286 1289 28
1032 1286 1290 28
1033 1291 1292 28
1034 1291 1293 28
1035 1291 1294 28
1036 1291 1295 28
1037 1296 1297 28
1038 1296 1298 28
1039 1296 1299 28
1040 1296 1300 28
1041 1301 1302 28
1042 1301 1303 28
1043 1301 1304 28
1044 1301 1305 28
1045 1306 1307 28
1046 1306 1308 28
1047 1306 1309 28
1048 1306 1310 28
1049 1311 1312 28
1050 1311 1313 28
1051 1311 1314 28
1052 1311 1315 28
1053 1316 1317 28
1054 1316 1318 28
1055 1316 1319 28
1056 1316 1320 28
1057 1321 1322 28
1058 1321 1323 28
1059 1321 1324 28
1060 1321 1325 28
1061 1326 1327 28
1062 1326 1328 28
1063 1326 1329 28
1064 1326 1330 28
1065 1331 1332 28
1066 1331 1333 28
1067 1331 1334 28
1068 1331 1335 28
1069 1336 1337 28
1070 1336 1338 28
1071 1336 1339 28
1072 1336 1340 28
1073 1341 1342 28
1074 1341 1343 28
1075 1341 1344 28
1076 1341 1345 28
1077 1346 1347 28
1078 1346 1348 28
1079 1346 1349 28
1080 1346 1350 28
1081 1351 1352 28
1082 1351 1353 28
1083 1351 1354 28
1084 1351 1355 28
1085 1356 1357 28
1086 1356 1358 28
1087 1356 1359 28
1088 1356 1360 28
1089 1361 1362 28
1090 1361 1363 28
1091 1361 1364 28
1092 1361 1365 28
1093 1366 1367 28
1094 1366 1368 28
1095 1366 1369 28
1096 1366 1370 28
1097 1371 1372 28
1098 1371 1373 28
1099 1371 1374 28
1100 1371 1375 28
1101 1376 1377 28
1102 1376 1378 28
1103 1376 1379 28
1104 1376 1380 28
1105 1381 1382 28
1106 1381 1383 28
1107 1381 1384 28
1108 1381 1385 28
1109 1386 1387 28
1110 1386 1388 28
1111 1386 1389 28
1112 1386 1390 28
1113 1391 1392 28
1114 1391 1393 28
1115 1391 1394 28
1116 1391 1395 28
1117 1396 1397 28
1118 1396 1398 28
1119 1396 1399 28
1120 1396 1400 28
1121 1401 1402 28
1122 1401 1403 28
1123 1401 1404 28
1124 1401 1405 28
1125 1406 1407 28
1126 1406 1408 28
1127 1406 1409 28
1128 1406 1410 28
1129 1411 1412 28
1130 1411 1413 28
1131 1411 1414 28
1132 1411 1415 28
1133 1416 1417 28
1134 1416 1418 28
1135 1416 1419 28
1136 1416 1420 28
1137 1421 1422 28
1138 1421 1423 28
1139 1421 1424 28
1140 1421 1425 28
1141 1426 1427 28
1142 1426 1428 28
1143 1426 1429 28
1144 1426 1430 28
1145 1431 1432 28
1146 1431 1433 28
1147 1431 1434 28
1148 1431 1435 28
1149 1436 1437 28
1150 1436 1438 28
1151 1436 1439 28
1152 1436 1440 28
1153 1441 1442 28
1154 1441 1443 28
1155 1441 1444 28
1156 1441 1445 28
1157 1446 1447 28
1158 1446 1448 28
1159 1446 1449 28
1160 1446 1450 28
1161 1451 1452 28
1162 1451 1453 28
1163 1451 1454 28
1164 1451 1455 28
1165 1456 1457 28
1166 1456 1458 28
1167 1456 1459 28
1168 1456 1460 28
1169 1461 1462 28
1170 1461 1463 28
1171 1461 1464 28
1172 1461 1465 28
1173 1466 1467 28
1174 1466 1468 28
1175 1466 1469 28
1176 1466 1470 28
1177 1471 1472 28
1178 1471 1473 28
1179 1471 1474 28
1180 1471 1475 28
1181 1476 1477 28
1182 1476 1478 28
1183 1476 1479 28
1184 1476 1480 28
1185 1481 1482 28
1186 1481 1483 28
1187 1481 1484 28
1188 1481 1485 28
1189 1486 1487 28
1190 1486 1488 28
1191 1486 1489 28
1192 1486 1490 28
1193 1491 1492 28
1194 1491 1493 28
1195 1491 1494 28
1196 1491 1495 28
1197 1496 1497 28
1198 1496 1498 28
1199 1496 1499 28
1200 1496 1500 28
1201 1501 1502 28
1202 1501 1503 28
1203 1501 1504 28
1204 1501 1505 28
1205 1506 1507 28
1206 1506 1508 28
1207 1506 1509 28
1208 1506 1510 28
1209 1511 1512 28
1210 1511 1513 28
1211 1511 1514 28
1212 1511 1515 28
1213 1516 1517 28
1214 1516 1518 28
1215 1516 1519 28
1216 1516 1520 28
1217 1521 1522 28
1218 1521 1523 28
1219 1521 1524 28
1220 1521 1525 28
1221 1526 1527 28
1222 1526 1528 28
1223 1526 1529 28
1224 1526 1530 28
1225 1531 1532 28
1226 1531 1533 28
1227 1531 1534 28
1228 1531 1535 28
1229 1536 1537 28
1230 1536 1538 28
1231 1536 1539 28
1232 1536 1540 28
1233 1541 1542 28
1234 1541 1543 28
1235 1541 1544 28
1236 1541 1545 28
1237 1546 1547 28
1238 1546 1548 28
1239 1546 1549 28
1240 1546 1550 28
1241 1551 1552 28
1242 1551 1553 28
1243 1551 1554 28
1244 1551 1555 28
1245 1556 1557 28
1246 1556 1558 28
1247 1556 1559 28
1248 1556 1560 28
1249 1561 1562 28
1250 1561 1563 28
1251 1561 1564 28
1252 1561 1565 28
1253 1566 1567 28
1254 1566 1568 28
1255 1566 1569 28
1256 1566 1570 28
1257 1571 1572 28
1258 1571 1573 28
1259 1571 1574 28
1260 1571 1575 28
1261 1576 1577 28
1262 1576 1578 28
1263 1576 1579 28
1264 1576 1580 28
1265 1581 1582 28
1266 1581 1583 28
1267 1581 1584 28
1268 1581 1585 28
1269 1586 1587 28
1270 1586 1588 28
1271 1586 1589 28
1272 1586 1590 28
1273 1591 1592 28
1274 1591 1593 28
1275 1591 1594 28
1276 1591 1595 28
1277 1596 1597 28
1278 1596 1598 28
1279 1596 1599 28
1280 1596 1600 28
1281 1601 1602 28
1282 1601 1603 28
1283 1601 1604 28
1284 1601 1605 28
1285 1606 1607 28
1286 1606 1608 28
1287 1606 1609 28
1288 1606 1610 28
1289 1611 1612 28
1290 1611 1613 28
1291 1611 1614 28
1292 1611 1615 28
1293 1616 1617 28
1294 1616 1618 28
1295 1616 1619 28
1296 1616 1620 28
1297 1621 1622 28
1298 1621 1623 28
1299 1621 1624 28
1300 1621 1625 28
1301 1626 1627 28
1302 1626 1628 28
1303 1626 1629 28
1304 1626 1630 28
1305 1631 1632 28
1306 1631 1633 28
1307 1631 1634 28
1308 1631 1635 28
1309 1636 1637 28
1310 1636 1638 28
1311 1636 1639 28
1312 1636 1640 28
1313 1641 1642 28
1314 1641 1643 28
1315 1641 1644 28
1316 1641 1645 28
1317 1646 1647 28
1318 1646 1648 28
1319 1646 1649 28
1320 1646 1650 28
1321 1651 1652 28
1322 1651 1653 28
1323 1651 1654 28
1324 1651 1655 28
1325 1656 1657 28
1326 1656 1658 28
1327 1656 1659 28
1328 1656 1660 28
1329 1661 1662 28
1330 1661 1663 28
1331 1661 1664 28
1332 1661 1665 28
1333 1666 1667 28
1334 1666 1668 28
1335 1666 1669 28
1336 1666 1670 28
1337 1671 1672 28
1338 1671 1673 28
1339 1671 1674 28
1340 1671 1675 28
1341 1676 1677 28
1342 1676 1678 28
1343 1676 1679 28
1344 1676 1680 28
1345 1681 1682 28
1346 1681 1683 28
1347 1681 1684 28
1348 1681 1685 28
1349 1686 1687 28
1350 1686 1688 28
1351 1686 1689 28
1352 1686 1690 28
1353 1691 1692 28
1354 1691 1693 28
1355 1691 1694 28
1356 1691 1695 28
1357 1696 1697 28
1358 1696 1698 28
1359 1696 1699 28
1360 1696 1700 28
1361 1701 1702 28
1362 1701 1703 28
1363 1701 1704 28
1364 1701 1705 28
1365 1706 1707 28
1366 1706 1708 28
1367 1706 1709 28
1368 1706 1710 28
1369 1711 1712 28
1370 1711 1713 28
1371 1711 1714 28
1372 1711 1715 28
1373 1716 1717 28
1374 1716 1718 28
1375 1716 1719 28
1376 1716 1720 28
1377 1721 1722 28
1378 1721 1723 28
1379 1721 1724 28
1380 1721 1725 28
1381 1726 1727 28
1382 1726 1728 28
1383 1726 1729 28
1384 1726 1730 28
1385 1731 1732 28
1386 1731 1733 28
1387 1731 1734 28
1388 1731 1735 28
1389 1736 1737 28
1390 1736 1738 28
1391 1736 1739 28
1392 1736 1740 28
1393 1741 1742 28
1394 1741 1743 28
1395 1741 1744 28
1396 1741 1745 28
1397 1746 1747 28
1398 1746 1748 28
1399 1746 1749 28
1400 1746 1750 28
1401 1751 1752 28
1402 1751 1753 28
1403 1751 1754 28
1404 1751 1755 28
1405 1756 1757 28
1406 1756 1758 28
1407 1756 1759 28
1408 1756 1760 28
1409 1761 1762 28
1410 1761 1763 28
1411 1761 1764 28
1412 1761 1765 28
1413 1766 1767 28
1414 1766 1768 28
1415 1766 1769 28
1416 1766 1770 28
1417 1771 1772 28
1418 1771 1773 28
1419 1771 1774 28
1420 1771 1775 28
1421 1776 1777 28
1422 1776 1778 28
1423 1776 1779 28
1424 1776 1780 28
1425 1781 1782 28
1426 1781 1783 28
1427 1781 1784 28
1428 1781 1785 28
1429 1786 1787 28
1430 1786 1788 28
1431 1786 1789 28
1432 1786 1790 28
1433 1791 1792 28
1434 1791 1793 28
1435 1791 1794 28
1436 1791 1795 28
1437 1796 1797 28
1438 1796 1798 28
1439 1796 1799 28
1440 1796 1800 28
1441 1801 1802 28
1442 1801 1803 28
1443 1801 1804 28
1444 1801 1805 28
1445 1806 1807 28
1446 1806 1808 28
1447 1806 1809 28
1448 1806 1810 28
1449 1811 1812 28
1450 1811 1813 28
1451 1811 1814 28
1452 1811 1815 28
1453 1816 1817 28
1454 1816 1818 28
1455 1816 1819 28
1456 1816 1820 28
1457 1821 1822 28
1458 1821 1823 28
1459 1821 1824 28
1460 1821 1825 28
1461 1826 1827 28
1462 1826 1828 28
1463 1826 1829 28
1464 1826 1830 28
1465 1831 1832 28
1466 1831 1833 28
1467 1831 1834 28
1468 1831 1835 28
1469 1836 1837 28
1470 1836 1838 28
1471 1836 1839 28
1472 1836 1840 28
1473 1841 1842 28
1474 1841 1843 28
1475 1841 1844 28
1476 1841 1845 28
1477 1846 1847 28
1478 1846 1848 28
1479 1846 1849 28
1480 1846 1850 28
1481 1851 1852 28
1482 1851 1853 28
1483 1851 1854 28
1484 1851 1855 28
1485 1856 1857 28
1486 1856 1858 28
1487 1856 1859 28
1488 1856 1860 28
1489 1861 1862 28
1490 1861 1863 28
1491 1861 1864 28
1492 1861 1865 28
1493 1866 1867 28
1494 1866 1868 28
1495 1866 1869 28
1496 1866 1870 28
1497 1871 1872 28
1498 1871 1873 28
1499 1871 1874 28
1500 1871 1875 28
1501 1876 1877 28
1502 1876 1878 28
1503 1876 1879 28
1504 1876 1880 28
1505 1881 1882 28
1506 1881 1883 28
1507 1881 1884 28
1508 1881 1885 28
1509 1886 1887 28
1510 1886 1888 28
1511 1886 1889 28
1512 1886 1890 28
1513 1891 1892 28
1514 1891 1893 28
1515 1891 1894 28
1516 1891 1895 28
1517 1896 1897 28
1518 1896 1898 28
1519 1896 1899 28
1520 1896 1900 28
1521 1901 1902 28
1522 1901 1903 28
1523 1901 1904 28
1524 1901 1905 28
1525 1906 1907 28
1526 1906 1908 28
1527 1906 1909 28
1528 1906 1910 28
1529 1911 1912 28
1530 1911 1913 28
1531 1911 1914 28
1532 1911 1915 28
1533 1916 1917 28
1534 1916 1918 28
1535 1916 1919 28
1536 1916 1920 28
1537 1921 1922 28
1538 1921 1923 28
1539 1921 1924 28
1540 1921 1925 28
1541 1926 1927 28
1542 1926 1928 28
1543 1926 1929 28
1544 1926 1930 28
1545 1931 1932 28
1546 1931 1933 28
1547 1931 1934 28
1548 1931 1935 28
1549 1936 1937 28
1550 1936 1938 28
1551 1936 1939 28
1552 1936 1940 28
1553 1941 1942 28
1554 1941 1943 28
1555 1941 1944 28
1556 1941 1945 28
1557 1946 1947 28
1558 1946 1948 28
1559 1946 1949 28
1560 1946 1950 28
1561 1951 1952 28
1562 1951 1953 28
1563 1951 1954 28
1564 1951 1955 28
1565 1956 1957 28
1566 1956 1958 28
1567 1956 1959 28
1568 1956 1960 28
1569 1961 1962 28
1570 1961 1963 28
1571 1961 1964 28
1572 1961 1965 28
1573 1966 1967 28
1574 1966 1968 28
1575 1966 1969 28
1576 1966 1970 28
1577 1971 1972 28
1578 1971 1973 28
1579 1971 1974 28
1580 1971 1975 28
1581 1976 1977 28
1582 1976 1978 28
1583 1976 1979 28
1584 1976 1980 28
1585 1981 1982 28
1586 1981 1983 28
1587 1981 1984 28
1588 1981 1985 28
1589 1986 1987 28
1590 1986 1988 28
1591 1986 1989 28
1592 1986 1990 28
1593 1991 1992 28
1594 1991 1993 28
1595 1991 1994 28
1596 1991 1995 28
1597 1996 1997 28
1598 1996 1998 28
1599 1996 1999 28
1600 1996 2000 28
1601 2001 2002 28
1602 2001 2003 28
1603 2001 2004 28
1604 2001 2005 28
1605 2006 2007 28
1606 2006 2008 28
1607 2006 2009 28
1608 2006 2010 28
1609 2011 2012 28
1610 2011 2013 28
1611 2011 2014 28
1612 2011 2015 28
1613 2016 2017 28
1614 2016 2018 28
1615 2016 2019 28
1616 2016 2020 28
1617 2021 2022 28
1618 2021 2023 28
1619 2021 2024 28
1620 2021 2025 28
1621 2026 2027 28
1622 2026 2028 28
1623 2026 2029 28
1624 2026 2030 28
1625 2031 2032 28
1626 2031 2033 28
1627 2031 2034 28
1628 2031 2035 28
1629 2036 2037 28
1630 2036 2038 28
1631 2036 2039 28
1632 2036 2040 28
1633 2041 2042 28
1634 2041 2043 28
1635 2041 2044 28
1636 2041 2045 28
1637 2046 2047 28
1638 2046 2048 28
1639 2046 2049 28
1640 2046 2050 28
1641 2051 2052 28
1642 2051 2053 28
1643 2051 2054 28
1644 2051 2055 28
1645 2056 2057 28
1646 2056 2058 28
1647 2056 2059 28
1648 2056 2060 28
1649 2061 2062 28
1650 2061 2063 28
1651 2061 2064 28
1652 2061 2065 28
1653 2066 2067 28
1654 2066 2068 28
1655 2066 2069 28
1656 2066 2070 28
1657 2071 2072 28
1658 2071 2073 28
1659 2071 2074 28
1660 2071 2075 28
1661 2076 2077 28
1662 2076 2078 28
1663 2076 2079 28
1664 2076 2080 28
1665 2081 2082 28
1666 2081 2083 28
1667 2081 2084 28
1668 2081 2085 28
1669 2086 2087 28
1670 2086 2088 28
1671 2086 2089 28
1672 2086 2090 28
1673 2091 2092 28
1674 2091 2093 28
1675 2091 2094 28
1676 2091 2095 28
1677 2096 2097 28
1678 2096 2098 28
1679 2096 2099 28
1680 2096 2100 28
1681 2101 2102 28
1682 2101 2103 28
1683 2101 2104 28
1684 2101 2105 28
1685 2106 2107 28
1686 2106 2108 28
1687 2106 2109 28
1688 2106 2110 28
1689 2111 2112 28
1690 2111 2113 28
1691 2111 2114 28
1692 2111 2115 28
1693 2116 2117 28
1694 2116 2118 28
1695 2116 2119 28
1696 2116 2120 28
1697 2121 2122 28
1698 2121 2123 28
1699 2121 2124 28
1700 2121 2125 28
1701 2126 2127 28
1702 2126 2128 28
1703 2126 2129 28
1704 2126 2130 28
1705 2131 2132 28
1706 2131 2133 28
1707 2131 2134 28
1708 2131 2135 28
1709 2136 2137 28
1710 2136 2138 28
1711 2136 2139 28
1712 2136 2140 28
1713 2141 2142 28
1714 2141 2143 28
1715 2141 2144 28
1716 2141 2145 28
1717 2146 2147 28
1718 2146 2148 28
1719 2146 2149 28
1720 2146 2150 28
1721 2151 2152 28
1722 2151 2153 28
1723 2151 2154 28
1724 2151 2155 28
1725 2156 2157 28
1726 2156 2158 28
1727 2156 2159 28
1728 2156 2160 28
1729 2161 2162 28
1730 2161 2163 28
1731 2161 2164 28
1732 2161 2165 28
1733 2166 2167 28
1734 2166 2168 28
1735 2166 2169 28
1736 2166 2170 28
1737 2171 2172 28
1738 2171 2173 28
1739 2171 2174 28
1740 2171 2175 28
1741 2176 2177 28
1742 2176 2178 28
1743 2176 2179 28
1744 2176 2180 28
1745 2181 2182 28
1746 2181 2183 28
1747 2181 2184 28
1748 2181 2185 28
1749 2186 2187 28
1750 2186 2188 28
1751 2186 2189 28
1752 2186 2190 28
1753 2191 2192 28
1754 2191 2193 28
1755 2191 2194 28
1756 2191 2195 28
1757 2196 2197 28
1758 2196 2198 28
1759 2196 2199 28
1760 2196 2200 28
1761 2201 2202 28
1762 2201 2203 28
1763 2201 2204 28
1764 2201 2205 28
1765 2206 2207 28
1766 2206 2208 28
1767 2206 2209 28
1768 2206 2210 28
1769 2211 2212 28
1770 2211 2213 28
1771 2211 2214 28
1772 2211 2215 28
1773 2216 2217 28
1774 2216 2218 28
1775 2216 2219 28
1776 2216 2220 28
1777 2221 2222 28
1778 2221 2223 28
1779 2221 2224 28
1780 2221 2225 28
1781 2226 2227 28
1782 2226 2228 28
1783 2226 2229 28
1784 2226 2230 28
1785 2231 2232 28
1786 2231 2233 28
1787 2231 2234 28
1788 2231 2235 28
1789 2236 2237 28
1790 2236 2238 28
1791 2236 2239 28
1792 2236 2240 28
1793 2241 2242 28
1794 2241 2243 28
1795 2241 2244 28
1796 2241 2245 28
1797 2246 2247 28
1798 2246 2248 28
1799 2246 2249 28
1800 2246 2250 28
1801 2251 2252 28
1802 2251 2253 28
1803 2251 2254 28
1804 2251 2255 28
1805 2256 2257 28
1806 2256 2258 28
1807 2256 2259 28
1808 2256 2260 28
1809 2261 2262 28
1810 2261 2263 28
1811 2261 2264 28
1812 2261 2265 28
1813 2266 2267 28
1814 2266 2268 28
1815 2266 2269 28
1816 2266 2270 28
1817 2271 2272 28
1818 2271 2273 28
1819 2271 2274 28
1820 2271 2275 28
1821 2276 2277 28
1822 2276 2278 28
1823 2276 2279 28
1824 2276 2280 28
1825 2281 2282 28
1826 2281 2283 28
1827 2281 2284 28
1828 2281 2285 28
1829 2286 2287 28
1830 2286 2288 28
1831 2286 2289 28
1832 2286 2290 28
1833 2291 2292 28
1834 2291 2293 28
1835 2291 2294 28
1836 2291 2295 28
1837 2296 2297 28
1838 2296 2298 28
1839 2296 2299 28
1840 2296 2300 28
1841 2301 2302 28
1842 2301 2303 28
1843 2301 2304 28
1844 2301 2305 28
1845 2306 2307 28
1846 2306 2308 28
1847 2306 2309 28
1848 2306 2310 28
1849 2311 2312 28
1850 2311 2313 28
1851 2311 2314 28
1852 2311 2315 28
1853 2316 2317 28
1854 2316 2318 28
1855 2316 2319 28
1856 2316 2320 28
1857 2321 2322 28
1858 2321 2323 28
1859 2321 2324 28
1860 2321 2325 28
1861 2326 2327 28
1862 2326 2328 28
1863 2326 2329 28
1864 2326 2330 28
1865 2331 2332 28
1866 2331 2333 28
1867 2331 2334 28
1868 2331 2335 28
1869 2336 2337 28
1870 2336 2338 28
1871 2336 2339 28
1872 2336 2340 28
1873 2341 2342 28
1874 2341 2343 28
1875 2341 2344 28
1876 2341 2345 28
1877 2346 2347 28
1878 2346 2348 28
1879 2346 2349 28
1880 2346 2350 28
1881 2351 2352 28
1882 2351 2353 28
1883 2351 2354 28
1884 2351 2355 28
1885 2356 2357 28
1886 2356 2358 28
1887 2356 2359 28
1888 2356 2360 28
1889 2361 2362 28
1890 2361 2363 28
1891 2361 2364 28
1892 2361 2365 28
1893 2366 2367 28
1894 2366 2368 28
1895 2366 2369 28
1896 2366 2370 28
1897 2371 2372 28
1898 2371 2373 28
1899 2371 2374 28
1900 2371 2375 28
1901 2376 2377 28
1902 2376 2378 28
1903 2376 2379 28
1904 2376 2380 28
1905 2381 2382 28
1906 2381 2383 28
1907 2381 2384 28
1908 2381 2385 28
1909 2386 2387 28
1910 2386 2388 28
1911 2386 2389 28
1912 2386 2390 28
1913 2391 2392 28
1914 2391 2393 28
1915 2391 2394 28
1916 2391 2395 28
1917 2396 2397 28
1918 2396 2398 28
1919 2396 2399 28
1920 2396 2400 28
1921 2401 2402 28
1922 2401 2403 28
1923 2401 2404 28
1924 2401 2405 28
1925 2406 2407 28
1926 2406 2408 28
1927 2406 2409 28
1928 2406 2410 28
1929 2411 2412 28
1930 2411 2413 28
1931 2411 2414 28
1932 2411 2415 28
1933 2416 2417 28
1934 2416 2418 28
1935 2416 2419 28
1936 2416 2420 28
1937 2421 2422 28
1938 2421 2423 28
1939 2421 2424 28
1940 2421 2425 28
1941 2426 2427 28
1942 2426 2428 28
1943 2426 2429 28
1944 2426 2430 28
1945 2431 2432 28
1946 2431 2433 28
1947 2431 2434 28
1948 2431 2435 28
1949 2436 2437 28
1950 2436 2438 28
1951 2436 2439 28
1952 2436 2440 28
1953 2441 2442 28
1954 2441 2443 28
1955 2441 2444 28
1956 2441 2445 28
1957 2446 2447 28
1958 2446 2448 28
1959 2446 2449 28
1960 2446 2450 28
1961 2451 2452 28
1962 2451 2453 28
1963 2451 2454 28
1964 2451 2455 28
1965 2456 2457 28
1966 2456 2458 28
1967 2456 2459 28
1968 2456 2460 28
1969 2461 2462 28
1970 2461 2463 28
1971 2461 2464 28
1972 2461 2465 28
1973 2466 2467 28
1974 2466 2468 28
1975 2466 2469 28
1976 2466 2470 28
1977 2471 2472 28
1978 2471 2473 28
1979 2471 2474 28
1980 2471 2475 28
1981 2476 2477 28
1982 2476 2478 28
1983 2476 2479 28
1984 2476 2480 28
1985 2481 2482 28
1986 2481 2483 28
1987 2481 2484 28
1988 2481 2485 28
1989 2486 2487 28
1990 2486 2488 28
1991 2486 2489 28
1992 2486 2490 28
1993 2491 2492 28
1994 2491 2493 28
1995 2491 2494 28
1996 2491 2495 28
1997 2496 2497 28
1998 2496 2498 28
1999 2496 2499 28
2000 2496 2500 28
2001 2501 2502 28
2002 2501 2503 28
2003 2501 2504 28
2004 2501 2505 28
2005 2506 2507 28
2006 2506 2508 28
2007 2506 2509 28
2008 2506 2510 28
2009 2511 2512 28
2010 2511 2513 28
2011 2511 2514 28
2012 2511 2515 28
2013 2516 2517 28
2014 2516 2518 28
2015 2516 2519 28
2016 2516 2520 28
2017 2521 2522 28
2018 2521 2523 28
2019 2521 2524 28
2020 2521 2525 28
2021 2526 2527 28
2022 2526 2528 28
2023 2526 2529 28
2024 2526 2530 28
2025 2531 2532 28
2026 2531 2533 28
2027 2531 2534 28
2028 2531 2535 28
2029 2536 2537 28
2030 2536 2538 28
2031 2536 2539 28
2032 2536 2540 28
2033 2541 2542 28
2034 2541 2543 28
2035 2541 2544 28
2036 2541 2545 28
2037 2546 2547 28
2038 2546 2548 28
2039 2546 2549 28
2040 2546 2550 28
2041 2551 2552 28
2042 2551 2553 28
2043 2551 2554 28
2044 2551 2555 28
2045 2556 2557 28
2046 2556 2558 28
2047 2556 2559 28
2048 2556 2560 28
2049 2561 2562 28
2050 2561 2563 28
2051 2561 2564 28
2052 2561 2565 28
2053 2566 2567 28
2054 2566 2568 28
2055 2566 2569 28
2056 2566 2570 28
2057 2571 2572 28
2058 2571 2573 28
2059 2571 2574 28
2060 2571 2575 28
2061 2576 2577 28
2062 2576 2578 28
2063 2576 2579 28
2064 2576 2580 28
2065 2581 2582 28
2066 2581 2583 28
2067 2581 2584 28
2068 2581 2585 28
2069 2586 2587 28
2070 2586 2588 28
2071 2586 2589 28
2072 2586 2590 28
2073 2591 2592 28
2074 2591 2593 28
2075 2591 2594 28
2076 2591 2595 28
2077 2596 2597 28
2078 2596 2598 28
2079 2596 2599 28
2080 2596 2600 28
2081 2601 2602 28
2082 2601 2603 28
2083 2601 2604 28
2084 2601 2605 28
2085 2606 2607 28
2086 2606 2608 28
2087 2606 2609 28
2088 2606 2610 28
2089 2611 2612 28
2090 2611 2613 28
2091 2611 2614 28
2092 2611 2615 28
2093 2616 2617 28
2094 2616 2618 28
2095 2616 2619 28
2096 2616 2620 28
2097 2621 2622 28
2098 2621 2623 28
2099 2621 2624 28
2100 2621 2625 28
2101 2626 2627 28
2102 2626 2628 28
2103 2626 2629 28
2104 2626 2630 28
2105 2631 2632 28
2106 2631 2633 28
2107 2631 2634 28
2108 2631 2635 28
2109 2636 2637 28
2110 2636 2638 28
2111 2636 2639 28
2112 2636 2640 28
2113 2641 2642 28
2114 2641 2643 28
2115 2641 2644 28
2116 2641 2645 28
2117 2646 2647 28
2118 2646 2648 28
2119 2646 2649 28
2120 2646 2650 28
2121 2651 2652 28
2122 2651 2653 28
2123 2651 2654 28
2124 2651 2655 28
2125 2656 2657 28
2126 2656 2658 28
2127 2656 2659 28
2128 2656 2660 28
2129 2661 2662 28
2130 2661 2663 28
2131 2661 2664 28
2132 2661 2665 28
2133 2666 2667 28
2134 2666 2668 28
2135 2666 2669 28
2136 2666 2670 28
2137 2671 2672 28
2138 2671 2673 28
2139 2671 2674 28
2140 2671 2675 28
2141 2676 2677 28
2142 2676 2678 28
2143 2676 2679 28
2144 2676 2680 28
2145 2681 2682 28
2146 2681 2683 28
2147 2681 2684 28
2148 2681 2685 28
2149 2686 2687 28
2150 2686 2688 28
2151 2686 2689 28
2152 2686 2690 28
2153 2691 2692 28
2154 2691 2693 28
2155 2691 2694 28
2156 2691 2695 28
2157 2696 2697 28
2158 2696 2698 28
2159 2696 2699 28
2160 2696 2700 28
2161 2701 2702 28
2162 2701 2703 28
2163 2701 2704 28
2164 2701 2705 28
2165 2706 2707 28
2166 2706 2708 28
2167 2706 2709 28
2168 2706 2710 28
2169 2711 2712 28
2170 2711 2713 28
2171 2711 2714 28
2172 2711 2715 28
2173 2716 2717 28
2174 2716 2718 28
2175 2716 2719 28
2176 2716 2720 28
2177 2721 2722 28
2178 2721 2723 28
2179 2721 2724 28
2180 2721 2725 28
2181 2726 2727 28
2182 2726 2728 28
2183 2726 2729 28
2184 2726 2730 28
2185 2731 2732 28
2186 2731 2733 28
2187 2731 2734 28
2188 2731 2735 28
2189 2736 2737 28
2190 2736 2738 28
2191 2736 2739 28
2192 2736 2740 28
2193 2741 2742 28
2194 2741 2743 28
2195 2741 2744 28
2196 2741 2745 28
2197 2746 2747 28
2198 2746 2748 28
2199 2746 2749 28
2200 2746 2750 28
2201 2751 2752 28
2202 2751 2753 28
2203 2751 2754 28
2204 2751 2755 28
2205 2756 2757 28
2206 2756 2758 28
2207 2756 2759 28
2208 2756 2760 28
2209 2761 2762 28
2210 2761 2763 28
2211 2761 2764 28
2212 2761 2765 28
2213 2766 2767 28
2214 2766 2768 28
2215 2766 2769 28
2216 2766 2770 28
2217 2771 2772 28
2218 2771 2773 28
2219 2771 2774 28
2220 2771 2775 28
2221 2776 2777 28
2222 2776 2778 28
2223 2776 2779 28
2224 2776 2780 28
2225 2781 2782 28
2226 2781 2783 28
2227 2781 2784 28
2228 2781 2785 28
2229 2786 2787 28
2230 2786 2788 28
2231 2786 2789 28
2232 2786 2790 28
2233 2791 2792 28
2234 2791 2793 28
2235 2791 2794 28
2236 2791 2795 28
2237 2796 2797 28
2238 2796 2798 28
2239 2796 2799 28
2240 2796 2800 28
2241 2801 2802 28
2242 2801 2803 28
2243 2801 2804 28
2244 2801 2805 28
2245 2806 2807 28
2246 2806 2808 28
2247 2806 2809 28
2248 2806 2810 28
2249 2811 2812 28
2250 2811 2813 28
2251 2811 2814 28
2252 2811 2815 28
2253 2816 2817 28
2254 2816 2818 28
2255 2816 2819 28
2256 2816 2820 28
2257 2821 2822 28
2258 2821 2823 28
2259 2821 2824 28
2260 2821 2825 28
2261 2826 2827 28
2262 2826 2828 28
2263 2826 2829 28
2264 2826 2830 28
2265 2831 2832 28
2266 2831 2833 28
2267 2831 2834 28
2268 2831 2835 28
2269 2836 2837 28
2270 2836 2838 28
2271 2836 2839 28
2272 2836 2840 28
2273 2841 2842 28
2274 2841 2843 28
2275 2841 2844 28
2276 2841 2845 28
2277 2846 2847 28
2278 2846 2848 28
2279 2846 2849 28
2280 2846 2850 28
2281 2851 2852 28
2282 2851 2853 28
2283 2851 2854 28
2284 2851 2855 28
2285 2856 2857 28
2286 2856 2858 28
2287 2856 2859 28
2288 2856 2860 28
2289 2861 2862 28
2290 2861 2863 28
2291 2861 2864 28
2292 2861 2865 28
2293 2866 2867 28
2294 2866 2868 28
2295 2866 2869 28
2296 2866 2870 28
2297 2871 2872 28
2298 2871 2873 28
2299 2871 2874 28
2300 2871 2875 28
2301 2876 2877 28
2302 2876 2878 28
2303 2876 2879 28
2304 2876 2880 28
2305 2881 2882 28
2306 2881 2883 28
2307 2881 2884 28
2308 2881 2885 28
2309 2886 2887 28
2310 2886 2888 28
2311 2886 2889 28
2312 2886 2890 28
2313 2891 2892 28
2314 2891 2893 28
2315 2891 2894 28
2316 2891 2895 28
2317 2896 2897 28
2318 2896 2898 28
2319 2896 2899 28
2320 2896 2900 28
2321 2901 2902 28
2322 2901 2903 28
2323 2901 2904 28
2324 2901 2905 28
2325 2906 2907 28
2326 2906 2908 28
2327 2906 2909 28
2328 2906 2910 28
2329 2911 2912 28
2330 2911 2913 28
2331 2911 2914 28
2332 2911 2915 28
2333 2916 2917 28
2334 2916 2918 28
2335 2916 2919 28
2336 2916 2920 28
2337 2921 2922 28
2338 2921 2923 28
2339 2921 2924 28
2340 2921 2925 28
2341 2926 2927 28
2342 2926 2928 28
2343 2926 2929 28
2344 2926 2930 28
2345 2931 2932 28
2346 2931 2933 28
2347 2931 2934 28
2348 2931 2935 28
2349 2936 2937 28
2350 2936 2938 28
2351 2936 2939 28
2352 2936 2940 28
2353 2941 2942 28
2354 2941 2943 28
2355 2941 2944 28
2356 2941 2945 28
2357 2946 2947 28
2358 2946 2948 28
2359 2946 2949 28
2360 2946 2950 28
2361 2951 2952 28
2362 2951 2953 28
2363 2951 2954 28
2364 2951 2955 28
2365 2956 2957 28
2366 2956 2958 28
2367 2956 2959 28
2368 2956 2960 28
2369 2961 2962 28
2370 2961 2963 28
2371 2961 2964 28
2372 2961 2965 28
2373 2966 2967 28
2374 2966 2968 28
2375 2966 2969 28
2376 2966 2970 28
2377 2971 2972 28
2378 2971 2973 28
2379 2971 2974 28
2380 2971 2975 28
2381 2976 2977 28
2382 2976 2978 28
2383 2976 2979 28
2384 2976 2980 28
2385 2981 2982 28
2386 2981 2983 28
2387 2981 2984 28
2388 2981 2985 28
2389 2986 2987 28
2390 2986 2988 28
2391 2986 2989 28
2392 2986 2990 28
2393 2991 2992 28
2394 2991 2993 28
2395 2991 2994 28
2396 2991 2995 28
2397 2996 2997 28
2398 2996 2998 28
2399 2996 2999 28
2400 2996 3000 28
2401 3001 3002 28
2402 3001 3003 28
2403 3001 3004 28
2404 3001 3005 28
2405 3006 3007 28
2406 3006 3008 28
2407 3006 3009 28
2408 3006 3010 28
2409 3011 3012 28
2410 3011 3013 28
2411 3011 3014 28
2412 3011 3015 28
2413 3016 3017 28
2414 3016 3018 28
2415 3016 3019 28
2416 3016 3020 28
2417 3021 3022 28
2418 3021 3023 28
2419 3021 3024 28
2420 3021 3025 28
2421 3026 3027 28
2422 3026 3028 28
2423 3026 3029 28
2424 3026 3030 28
2425 3031 3032 28
2426 3031 3033 28
2427 3031 3034 28
2428 3031 3035 28
2429 3036 3037 28
2430 3036 3038 28
2431 3036 3039 28
2432 3036 3040 28
2433 3041 3042 28
2434 3041 3043 28
2435 3041 3044 28
2436 3041 3045 28
2437 3046 3047 28
2438 3046 3048 28
2439 3046 3049 28
2440 3046 3050 28
2441 3051 3052 28
2442 3051 3053 28
2443 3051 3054 28
2444 3051 3055 28
2445 3056 3057 28
2446 3056 3058 28
2447 3056 3059 28
2448 3056 3060 28
2449 3061 3062 28
2450 3061 3063 28
2451 3061 3064 28
2452 3061 3065 28
2453 3066 3067 28
2454 3066 3068 28
2455 3066 3069 28
2456 3066 3070 28
2457 3071 3072 28
2458 3071 3073 28
2459 3071 3074 28
2460 3071 3075 28
2461 3076 3077 28
2462 3076 3078 28
2463 3076 3079 28
2464 3076 3080 28
2465 3081 3082 28
2466 3081 3083 28
2467 3081 3084 28
2468 3081 3085 28
2469 3086 3087 28
2470 3086 3088 28
2471 3086 3089 28
2472 3086 3090 28
2473 3091 3092 28
2474 3091 3093 28
2475 3091 3094 28
2476 3091 3095 28
2477 3096 3097 28
2478 3096 3098 28
2479 3096 3099 28
2480 3096 3100 28
2481 3101 3102 28
2482 3101 3103 28
2483 3101 3104 28
2484 3101 3105 28
2485 3106 3107 28
2486 3106 3108 28
2487 3106 3109 28
2488 3106 3110 28
2489 3111 3112 28
2490 3111 3113 28
2491 3111 3114 28
2492 3111 3115 28
2493 3116 3117 28
2494 3116 3118 28
2495 3116 3119 28
2496 3116 3120 28
2497 3121 3122 28
2498 3121 3123 28
2499 3121 3124 28
2500 3121 3125 28
2501 3126 3127 28
2502 3126 3128 28
2503 3126 3129 28
2504 3126 3130 28
2505 3131 3132 28
2506 3131 3133 28
2507 3131 3134 28
2508 3131 3135 28
2509 3136 3137 28
2510 3136 3138 28
2511 3136 3139 28
2512 3136 3140 28
2513 3141 3142 28
2514 3141 3143 28
2515 3141 3144 28
2516 3141 3145 28
2517 3146 3147 28
2518 3146 3148 28
2519 3146 3149 28
2520 3146 3150 28
2521 3151 3152 28
2522 3151 3153 28
2523 3151 3154 28
2524 3151 3155 28
2525 3156 3157 28
2526 3156 3158 28
2527 3156 3159 28
2528 3156 3160 28
2529 3161 3162 28
2530 3161 3163 28
2531 3161 3164 28
2532 3161 3165 28
2533 3166 3167 28
2534 3166 3168 28
2535 3166 3169 28
2536 3166 3170 28
2537 3171 3172 28
2538 3171 3173 28
2539 3171 3174 28
2540 3171 3175 28
2541 3176 3177 28
2542 3176 3178 28
2543 3176 3179 28
2544 3176 3180 28
2545 3181 3182 28
2546 3181 3183 28
2547 3181 3184 28
2548 3181 3185 28
2549 3186 3187 28
2550 3186 3188 28
2551 3186 3189 28
2552 3186 3190 28
2553 3191 3192 28
2554 3191 3193 28
2555 3191 3194 28
2556 3191 3195 28
2557 3196 3197 28
2558 3196 3198 28
2559 3196 3199 28
2560 3196 3200 28
2561 3201 3202 28
2562 3201 3203 28
2563 3201 3204 28
2564 3201 3205 28
2565 3206 3207 28
2566 3206 3208 28
2567 3206 3209 28
2568 3206 3210 28
2569 3211 3212 28
2570 3211 3213 28
2571 3211 3214 28
2572 3211 3215 28
2573 3216 3217 28
2574 3216 3218 28
2575 3216 3219 28
2576 3216 3220 28
2577 3221 3222 28
2578 3221 3223 28
2579 3221 3224 28
2580 3221 3225 28
2581 3226 3227 28
2582 3226 3228 28
2583 3226 3229 28
2584 3226 3230 28
2585 3231 3232 28
2586 3231 3233 28
2587 3231 3234 28
2588 3231 3235 28
2589 3236 3237 28
2590 3236 3238 28
2591 3236 3239 28
2592 3236 3240 28
2593 3241 3242 28
2594 3241 3243 28
2595 3241 3244 28
2596 3241 3245 28
2597 3246 3247 28
2598 3246 3248 28
2599 3246 3249 28
2600 3246 3250 28
2601 3251 3252 28
2602 3251 3253 28
2603 3251 3254 28
2604 3251 3255 28
2605 3256 3257 28
2606 3256 3258 28
2607 3256 3259 28
2608 3256 3260 28
2609 3261 3262 28
2610 3261 3263 28
2611 3261 3264 28
2612 3261 3265 28
2613 3266 3267 28
2614 3266 3268 28
2615 3266 3269 28
2616 3266 3270 28
2617 3271 3272 28
2618 3271 3273 28
2619 3271 3274 28
2620 3271 3275 28
2621 3276 3277 28
2622 3276 3278 28
2623 3276 3279 28
2624 3276 3280 28
2625 3281 3282 28
2626 3281 3283 28
2627 3281 3284 28
2628 3281 3285 28
2629 3286 3287 28
2630 3286 3288 28
2631 3286 3289 28
2632 3286 3290 28
2633 3291 3292 28
2634 3291 3293 28
2635 3291 3294 28
2636 3291 3295 28
2637 3296 3297 28
2638 3296 3298 28
2639 3296 3299 28
2640 3296 3300 28
2641 3301 3302 28
2642 3301 3303 28
2643 3301 3304 28
2644 3301 3305 28
2645 3306 3307 28
2646 3306 3308 28
2647 3306 3309 28
2648 3306 3310 28
2649 3311 3312 28
2650 3311 3313 28
2651 3311 3314 28
2652 3311 3315 28
2653 3316 3317 28
2654 3316 3318 28
2655 3316 3319 28
2656 3316 3320 28
2657 3321 3322 28
2658 3321 3323 28
2659 3321 3324 28
2660 3321 3325 28
2661 3326 3327 28
2662 3326 3328 28
2663 3326 3329 28
2664 3326 3330 28
2665 3331 3332 28
2666 3331 3333 28
2667 3331 3334 28
2668 3331 3335 28
2669 3336 3337 28
2670 3336 3338 28
2671 3336 3339 28
2672 3336 3340 28
2673 3341 3342 28
2674 3341 3343 28
2675 3341 3344 28
2676 3341 3345 28
2677 3346 3347 28
2678 3346 3348 28
2679 3346 3349 28
2680 3346 3350 28
2681 3351 3352 28
2682 3351 3353 28
2683 3351 3354 28
2684 3351 3355 28
2685 3356 3357 28
2686 3356 3358 28
2687 3356 3359 28
2688 3356 3360 28
2689 3361 3362 28
2690 3361 3363 28
2691 3361 3364 28
2692 3361 3365 28
2693 3366 3367 28
2694 3366 3368 28
2695 3366 3369 28
2696 3366 3370 28
2697 3371 3372 28
2698 3371 3373 28
2699 3371 3374 28
2700 3371 3375 28
2701 3376 3377 28
2702 3376 3378 28
2703 3376 3379 28
2704 3376 3380 28
2705 3381 3382 28
2706 3381 3383 28
2707 3381 3384 28
2708 3381 3385 28
2709 3386 3387 28
2710 3386 3388 28
2711 3386 3389 28
2712 3386 3390 28
2713 3391 3392 28
2714 3391 3393 28
2715 3391 3394 28
2716 3391 3395 28
2717 3396 3397 28
2718 3396 3398 28
2719 3396 3399 28
2720 3396 3400 28
2721 3401 3402 28
2722 3401 3403 28
2723 3401 3404 28
2724 3401 3405 28
2725 3406 3407 28
2726 3406 3408 28
2727 3406 3409 28
2728 3406 3410 28
2729 3411 3412 28
2730 3411 3413 28
2731 3411 3414 28
2732 3411 3415 28
2733 3416 3417 28
2734 3416 3418 28
2735 3416 3419 28
2736 3416 3420 28
2737 3421 3422 28
2738 3421 3423 28
2739 3421 3424 28
2740 3421 3425 28
2741 3426 3427 28
2742 3426 3428 28
2743 3426 3429 28
2744 3426 3430 28
2745 3431 3432 28
2746 3431 3433 28
2747 3431 3434 28
2748 3431 3435 28
2749 3436 3437 28
2750 3436 3438 28
2751 3436 3439 28
2752 3436 3440 28
2753 3441 3442 28
2754 3441 3443 28
2755 3441 3444 28
2756 3441 3445 28
2757 3446 3447 28
2758 3446 3448 28
2759 3446 3449 28
2760 3446 3450 28
2761 3451 3452 28
2762 3451 3453 28
2763 3451 3454 28
2764 3451 3455 28
2765 3456 3457 28
2766 3456 3458 28
2767 3456 3459 28
2768 3456 3460 28
2769 3461 3462 28
2770 3461 3463 28
2771 3461 3464 28
2772 3461 3465 28
2773 3466 3467 28
2774 3466 3468 28
2775 3466 3469 28
2776 3466 3470 28
2777 3471 3472 28
2778 3471 3473 28
2779 3471 3474 28
2780 3471 3475 28
2781 3476 3477 28
2782 3476 3478 28
2783 3476 3479 28
2784 3476 3480 28
2785 3481 3482 28
2786 3481 3483 28
2787 3481 3484 28
2788 3481 3485 28
2789 3486 3487 28
2790 3486 3488 28
2791 3486 3489 28
2792 3486 3490 28
2793 3491 3492 28
2794 3491 3493 28
2795 3491 3494 28
2796 3491 3495 28
2797 3496 3497 28
2798 3496 3498 28
2799 3496 3499 28
2800 3496 3500 28
2801 3501 3502 28
2802 3501 3503 28
2803 3501 3504 28
2804 3501 3505 28
2805 3506 3507 28
2806 3506 3508 28
2807 3506 3509 28
2808 3506 3510 28
2809 3511 3512 28
2810 3511 3513 28
2811 3511 3514 28
2812 3511 3515 28
2813 3516 3517 28
2814 3516 3518 28
2815 3516 3519 28
2816 3516 3520 28
2817 3521 3522 28
2818 3521 3523 28
2819 3521 3524 28
2820 3521 3525 28
2821 3526 3527 28
2822 3526 3528 28
2823 3526 3529 28
2824 3526 3530 28
2825 3531 3532 28
2826 3531 3533 28
2827 3531 3534 28
2828 3531 3535 28
2829 3536 3537 28
2830 3536 3538 28
2831 3536 3539 28
2832 3536 3540 28
2833 3541 3542 28
2834 3541 3543 28
2835 3541 3544 28
2836 3541 3545 28
2837 3546 3547 28
2838 3546 3548 28
2839 3546 3549 28
2840 3546 3550 28
2841 3551 3552 28
2842 3551 3553 28
2843 3551 3554 28
2844 3551 3555 28
2845 3556 3557 28
2846 3556 3558 28
2847 3556 3559 28
2848 3556 3560 28
2849 3561 3562 28
2850 3561 3563 28
2851 3561 3564 28
2852 3561 3565 28
2853 3566 3567 28
2854 3566 3568 28
2855 3566 3569 28
2856 3566 3570 28
2857 3571 3572 28
2858 3571 3573 28
2859 3571 3574 28
2860 3571 3575 28
2861 3576 3577 28
2862 3576 3578 28
2863 3576 3579 28
2864 3576 3580 28
2865 3581 3582 28
2866 3581 3583 28
2867 3581 3584 28
2868 3581 3585 28
2869 3586 3587 28
2870 3586 3588 28
2871 3586 3589 28
2872 3586 3590 28
2873 3591 3592 28
2874 3591 3593 28
2875 3591 3594 28
2876 3591 3595 28
2877 3596 3597 28
2878 3596 3598 28
2879 3596 3599 28
2880 3596 3600 28
2881 3601 3602 28
2882 3601 3603 28
2883 3601 3604 28
2884 3601 3605 28
2885 3606 3607 28
2886 3606 3608 28
2887 3606 3609 28
2888 3606 3610 28
2889 3611 3612 28
2890 3611 3613 28
2891 3611 3614 28
2892 3611 3615 28
2893 3616 3617 28
2894 3616 3618 28
2895 3616 3619 28
2896 3616 3620 28
2897 3621 3622 28
2898 3621 3623 28
2899 3621 3624 28
2900 3621 3625 28
2901 3626 3627 28
2902 3626 3628 28
2903 3626 3629 28
2904 3626 3630 28
2905 3631 3632 28
2906 3631 3633 28
2907 3631 3634 28
2908 3631 3635 28
2909 3636 3637 28
2910 3636 3638 28
2911 3636 3639 28
2912 3636 3640 28
2913 3641 3642 28
2914 3641 3643 28
2915 3641 3644 28
2916 3641 3645 28
2917 3646 3647 28
2918 3646 3648 28
2919 3646 3649 28
2920 3646 3650 28
2921 3651 3652 28
2922 3651 3653 28
2923 3651 3654 28
2924 3651 3655 28
2925 3656 3657 28
2926 3656 3658 28
2927 3656 3659 28
2928 3656 3660 28
2929 3661 3662 28
2930 3661 3663 28
2931 3661 3664 28
2932 3661 3665 28
2933 3666 3667 28
2934 3666 3668 28
2935 3666 3669 28
2936 3666 3670 28
2937 3671 3672 28
2938 3671 3673 28
2939 3671 3674 28
2940 3671 3675 28
2941 3676 3677 28
2942 3676 3678 28
2943 3676 3679 28
2944 3676 3680 28
2945 3681 3682 28
2946 3681 3683 28
2947 3681 3684 28
2948 3681 3685 28
2949 3686 3687 28
2950 3686 3688 28
2951 3686 3689 28
2952 3686 3690 28
2953 3691 3692 28
2954 3691 3693 28
2955 3691 3694 28
2956 3691 3695 28
2957 3696 3697 28
2958 3696 3698 28
2959 3696 3699 28
2960 3696 3700 28
2961 3701 3702 28
2962 3701 3703 28
2963 3701 3704 28
2964 3701 3705 28
2965 3706 3707 28
2966 3706 3708 28
2967 3706 3709 28
2968 3706 3710 28
2969 3711 3712 28
2970 3711 3713 28
2971 3711 3714 28
2972 3711 3715 28
2973 3716 3717 28
2974 3716 3718 28
2975 3716 3719 28
2976 3716 3720 28
2977 3721 3722 28
2978 3721 3723 28
2979 3721 3724 28
2980 3721 3725 28
2981 3726 3727 28
2982 3726 3728 28
2983 3726 3729 28
2984 3726 3730 28
2985 3731 3732 28
2986 3731 3733 28
2987 3731 3734 28
2988 3731 3735 28
2989 3736 3737 28
2990 3736 3738 28
2991 3736 3739 28
2992 3736 3740 28
2993 3741 3742 28
2994 3741 3743 28
2995 3741 3744 28
2996 3741 3745 28
2997 3746 3747 28
2998 3746 3748 28
2999 3746 3749 28
3000 3746 3750 28
3001 3751 3752 28
3002 3751 3753 28
3003 3751 3754 28
3004 3751 3755 28
3005 3756 3757 28
3006 3756 3758 28
3007 3756 3759 28
3008 3756 3760 28
3009 3761 3762 28
3010 3761 3763 28
3011 3761 3764 28
3012 3761 3765 28
3013 3766 3767 28
3014 3766 3768 28
3015 3766 3769 28
3016 3766 3770 28
3017 3771 3772 28
3018 3771 3773 28
3019 3771 3774 28
3020 3771 3775 28
3021 3776 3777 28
3022 3776 3778 28
3023 3776 3779 28
3024 3776 3780 28
3025 3781 3782 28
3026 3781 3783 28
3027 3781 3784 28
3028 3781 3785 28
3029 3786 3787 28
3030 3786 3788 28
3031 3786 3789 28
3032 3786 3790 28
3033 3791 3792 28
3034 3791 3793 28
3035 3791 3794 28
3036 3791 3795 28
3037 3796 3797 28
3038 3796 3798 28
3039 3796 3799 28
3040 3796 3800 28
3041 3801 3802 28
3042 3801 3803 28
3043 3801 3804 28
3044 3801 3805 28
3045 3806 3807 28
3046 3806 3808 28
3047 3806 3809 28
3048 3806 3810 28
3049 3811 3812 28
3050 3811 3813 28
3051 3811 3814 28
3052 3811 3815 28
3053 3816 3817 28
3054 3816 3818 28
3055 3816 3819 28
3056 3816 3820 28
3057 3821 3822 28
3058 3821 3823 28
3059 3821 3824 28
3060 3821 3825 28
3061 3826 3827 28
3062 3826 3828 28
3063 3826 3829 28
3064 3826 3830 28
3065 3831 3832 28
3066 3831 3833 28
3067 3831 3834 28
3068 3831 3835 28
3069 3836 3837 28
3070 3836 3838 28
3071 3836 3839 28
3072 3836 3840 28
3073 3841 3842 28
3074 3841 3843 28
3075 3841 3844 28
3076 3841 3845 28
3077 3846 3847 28
3078 3846 3848 28
3079 3846 3849 28
3080 3846 3850 28
3081 3851 3852 28
3082 3851 3853 28
3083 3851 3854 28
3084 3851 3855 28
3085 3856 3857 28
3086 3856 3858 28
3087 3856 3859 28
3088 3856 3860 28
3089 3861 3862 28
3090 3861 3863 28
3091 3861 3864 28
3092 3861 3865 28
3093 3866 3867 28
3094 3866 3868 28
3095 3866 3869 28
3096 3866 3870 28
3097 3871 3872 28
3098 3871 3873 28
3099 3871 3874 28
3100 3871 3875 28
3101 3876 3877 28
3102 3876 3878 28
3103 3876 3879 28
3104 3876 3880 28
3105 3881 3882 28
3106 3881 3883 28
3107 3881 3884 28
3108 3881 3885 28
3109 3886 3887 28
3110 3886 3888 28
3111 3886 3889 28
3112 3886 3890 28
3113 3891 3892 28
3114 3891 3893 28
3115 3891 3894 28
3116 3891 3895 28
3117 3896 3897 28
3118 3896 3898 28
3119 3896 3899 28
3120 3896 3900 28
3121 3901 3902 28
3122 3901 3903 28
3123 3901 3904 28
3124 3901 3905 28
3125 3906 3907 28
3126 3906 3908 28
3127 3906 3909 28
3128 3906 3910 28
3129 3911 3912 28
3130 3911 3913 28
3131 3911 3914 28
3132 3911 3915 28
3133 3916 3917 28
3134 3916 3918 28
3135 3916 3919 28
3136 3916 3920 28
3137 3921 3922 28
3138 3921 3923 28
3139 3921 3924 28
3140 3921 3925 28
3141 3926 3927 28
3142 3926 3928 28
3143 3926 3929 28
3144 3926 3930 28
3145 3931 3932 28
3146 3931 3933 28
3147 3931 3934 28
3148 3931 3935 28
3149 3936 3937 28
3150 3936 3938 28
3151 3936 3939 28
3152 3936 3940 28
3153 3941 3942 28
3154 3941 3943 28
3155 3941 3944 28
3156 3941 3945 28
3157 3946 3947 28
3158 3946 3948 28
3159 3946 3949 28
3160 3946 3950 28
3161 3951 3952 28
3162 3951 3953 28
3163 3951 3954 28
3164 3951 3955 28
3165 3956 3957 28
3166 3956 3958 28
3167 3956 3959 28
3168 3956 3960 28
3169 3961 3962 28
3170 3961 3963 28
3171 3961 3964 28
3172 3961 3965 28
3173 3966 3967 28
3174 3966 3968 28
3175 3966 3969 28
3176 3966 3970 28
3177 3971 3972 28
3178 3971 3973 28
3179 3971 3974 28
3180 3971 3975 28
3181 3976 3977 28
3182 3976 3978 28
3183 3976 3979 28
3184 3976 3980 28
3185 3981 3982 28
3186 3981 3983 28
3187 3981 3984 28
3188 3981 3985 28
3189 3986 3987 28
3190 3986 3988 28
3191 3986 3989 28
3192 3986 3990 28
3193 3991 3992 28
3194 3991 3993 28
3195 3991 3994 28
3196 3991 3995 28
3197 3996 3997 28
3198 3996 3998 28
3199 3996 3999 28
3200 3996 4000 28
3201 4001 4002 28
3202 4001 4003 28
3203 4001 4004 28
3204 4001 4005 28
3205 4006 4007 28
3206 4006 4008 28
3207 4006 4009 28
3208 4006 4010 28
3209 4011 4012 28
3210 4011 4013 28
3211 4011 4014 28
3212 4011 4015 28
3213 4016 4017 28
3214 4016 4018 28
3215 4016 4019 28
3216 4016 4020 28
3217 4021 4022 28
3218 4021 4023 28
3219 4021 4024 28
3220 4021 4025 28
3221 4026 4027 28
3222 4026 4028 28
3223 4026 4029 28
3224 4026 4030 28
3225 4031 4032 28
3226 4031 4033 28
3227 4031 4034 28
3228 4031 4035 28
3229 4036 4037 28
3230 4036 4038 28
3231 4036 4039 28
3232 4036 4040 28
3233 4041 4042 28
3234 4041 4043 28
3235 4041 4044 28
3236 4041 4045 28
3237 4046 4047 28
3238 4046 4048 28
3239 4046 4049 28
3240 4046 4050 28
3241 4051 4052 28
3242 4051 4053 28
3243 4051 4054 28
3244 4051 4055 28
3245 4056 4057 28
3246 4056 4058 28
3247 4056 4059 28
3248 4056 4060 28
3249 4061 4062 28
3250 4061 4063 28
3251 4061 4064 28
3252 4061 4065 28
3253 4066 4067 28
3254 4066 4068 28
3255 4066 4069 28
3256 4066 4070 28
3257 4071 4072 28
3258 4071 4073 28
3259 4071 4074 28
3260 4071 4075 28
3261 4076 4077 28
3262 4076 4078 28
3263 4076 4079 28
3264 4076 4080 28
3265 4081 4082 28
3266 4081 4083 28
3267 4081 4084 28
3268 4081 4085 28
3269 4086 4087 28
3270 4086 4088 28
3271 4086 4089 28
3272 4086 4090 28
3273 4091 4092 28
3274 4091 4093 28
3275 4091 4094 28
3276 4091 4095 28
3277 4096 4097 28
3278 4096 4098 28
3279 4096 4099 28
3280 4096 4100 28
3281 4101 4102 28
3282 4101 4103 28
3283 4101 4104 28
3284 4101 4105 28
3285 4106 4107 28
3286 4106 4108 28
3287 4106 4109 28
3288 4106 4110 28
3289 4111 4112 28
3290 4111 4113 28
3291 4111 4114 28
3292 4111 4115 28
3293 4116 4117 28
3294 4116 4118 28
3295 4116 4119 28
3296 4116 4120 28
3297 4121 4122 28
3298 4121 4123 28
3299 4121 4124 28
3300 4121 4125 28
3301 4126 4127 28
3302 4126 4128 28
3303 4126 4129 28
3304 4126 4130 28
3305 4131 4132 28
3306 4131 4133 28
3307 4131 4134 28
3308 4131 4135 28
3309 4136 4137 28
3310 4136 4138 28
3311 4136 4139 28
3312 4136 4140 28
3313 4141 4142 28
3314 4141 4143 28
3315 4141 4144 28
3316 4141 4145 28
3317 4146 4147 28
3318 4146 4148 28
3319 4146 4149 28
3320 4146 4150 28
3321 4151 4152 28
3322 4151 4153 28
3323 4151 4154 28
3324 4151 4155 28
3325 4156 4157 28
3326 4156 4158 28
3327 4156 4159 28
3328 4156 4160 28
3329 4161 4162 28
3330 4161 4163 28
3331 4161 4164 28
3332 4161 4165 28
3333 4166 4167 28
3334 4166 4168 28
3335 4166 4169 28
3336 4166 4170 28
3337 4171 4172 28
3338 4171 4173 28
3339 4171 4174 28
3340 4171 4175 28
3341 4176 4177 28
3342 4176 4178 28
3343 4176 4179 28
3344 4176 4180 28
3345 4181 4182 28
3346 4181 4183 28
3347 4181 4184 28
3348 4181 4185 28
3349 4186 4187 28
3350 4186 4188 28
3351 4186 4189 28
3352 4186 4190 28
3353 4191 4192 28
3354 4191 4193 28
3355 4191 4194 28
3356 4191 4195 28
3357 4196 4197 28
3358 4196 4198 28
3359 4196 4199 28
3360 4196 4200 28
3361 4201 4202 28
3362 4201 4203 28
3363 4201 4204 28
3364 4201 4205 28
3365 4206 4207 28
3366 4206 4208 28
3367 4206 4209 28
3368 4206 4210 28
3369 4211 4212 28
3370 4211 4213 28
3371 4211 4214 28
3372 4211 4215 28
3373 4216 4217 28
3374 4216 4218 28
3375 4216 4219 28
3376 4216 4220 28
3377 4221 4222 28
3378 4221 4223 28
3379 4221 4224 28
3380 4221 4225 28
3381 4226 4227 28
3382 4226 4228 28
3383 4226 4229 28
3384 4226 4230 28
3385 4231 4232 28
3386 4231 4233 28
3387 4231 4234 28
3388 4231 4235 28
3389 4236 4237 28
3390 4236 4238 28
3391 4236 4239 28
3392 4236 4240 28
3393 4241 4242 28
3394 4241 4243 28
3395 4241 4244 28
3396 4241 4245 28
3397 4246 4247 28
3398 4246 4248 28
3399 4246 4249 28
3400 4246 4250 28
3401 4251 4252 28
3402 4251 4253 28
3403 4251 4254 28
3404 4251 4255 28
3405 4256 4257 28
3406 4256 4258 28
3407 4256 4259 28
3408 4256 4260 28
3409 4261 4262 28
3410 4261 4263 28
3411 4261 4264 28
3412 4261 4265 28
3413 4266 4267 28
3414 4266 4268 28
3415 4266 4269 28
3416 4266 4270 28
3417 4271 4272 28
3418 4271 4273 28
3419 4271 4274 28
3420 4271 4275 28
3421 4276 4277 28
3422 4276 4278 28
3423 4276 4279 28
3424 4276 4280 28
3425 4281 4282 28
3426 4281 4283 28
3427 4281 4284 28
3428 4281 4285 28
3429 4286 4287 28
3430 4286 4288 28
3431 4286 4289 28
3432 4286 4290 28
3433 4291 4292 28
3434 4291 4293 28
3435 4291 4294 28
3436 4291 4295 28
3437 4296 4297 28
3438 4296 4298 28
3439 4296 4299 28
3440 4296 4300 28
3441 4301 4302 28
3442 4301 4303 28
3443 4301 4304 28
3444 4301 4305 28
3445 4306 4307 28
3446 4306 4308 28
3447 4306 4309 28
3448 4306 4310 28
3449 4311 4312 28
3450 4311 4313 28
3451 4311 4314 28
3452 4311 4315 28
3453 4316 4317 28
3454 4316 4318 28
3455 4316 4319 28
3456 4316 4320 28
3457 4321 4322 28
3458 4321 4323 28
3459 4321 4324 28
3460 4321 4325 28
3461 4326 4327 28
3462 4326 4328 28
3463 4326 4329 28
3464 4326 4330 28
3465 4331 4332 28
3466 4331 4333 28
3467 4331 4334 28
3468 4331 4335 28
3469 4336 4337 28
3470 4336 4338 28
3471 4336 4339 28
3472 4336 4340 28
3473 4341 4342 28
3474 4341 4343 28
3475 4341 4344 28
3476 4341 4345 28
3477 4346 4347 28
3478 4346 4348 28
3479 4346 4349 28
3480 4346 4350 28
3481 4351 4352 28
3482 4351 4353 28
3483 4351 4354 28
3484 4351 4355 28
3485 4356 4357 28
3486 4356 4358 28
3487 4356 4359 28
3488 4356 4360 28
3489 4361 4362 28
3490 4361 4363 28
3491 4361 4364 28
3492 4361 4365 28
3493 4366 4367 28
3494 4366 4368 28
3495 4366 4369 28
3496 4366 4370 28
3497 4371 4372 28
3498 4371 4373 28
3499 4371 4374 28
3500 4371 4375 28
3501 4376 4377 28
3502 4376 4378 28
3503 4376 4379 28
3504 4376 4380 28
3505 4381 4382 28
3506 4381 4383 28
3507 4381 4384 28
3508 4381 4385 28
3509 4386 4387 28
3510 4386 4388 28
3511 4386 4389 28
3512 4386 4390 28
3513 4391 4392 28
3514 4391 4393 28
3515 4391 4394 28
3516 4391 4395 28
3517 4396 4397 28
3518 4396 4398 28
3519 4396 4399 28
3520 4396 4400 28
3521 4401 4402 28
3522 4401 4403 28
3523 4401 4404 28
3524 4401 4405 28
3525 4406 4407 28
3526 4406 4408 28
3527 4406 4409 28
3528 4406 4410 28
3529 4411 4412 28
3530 4411 4413 28
3531 4411 4414 28
3532 4411 4415 28
3533 4416 4417 28
3534 4416 4418 28
3535 4416 4419 28
3536 4416 4420 28
3537 4421 4422 28
3538 4421 4423 28
3539 4421 4424 28
3540 4421 4425 28
3541 4426 4427 28
3542 4426 4428 28
3543 4426 4429 28
3544 4426 4430 28
3545 4431 4432 28
3546 4431 4433 28
3547 4431 4434 28
3548 4431 4435 28
3549 4436 4437 28
3550 4436 4438 28
3551 4436 4439 28
3552 4436 4440 28
3553 4441 4442 28
3554 4441 4443 28
3555 4441 4444 28
3556 4441 4445 28
3557 4446 4447 28
3558 4446 4448 28
3559 4446 4449 28
3560 4446 4450 28
3561 4451 4452 28
3562 4451 4453 28
3563 4451 4454 28
3564 4451 4455 28
3565 4456 4457 28
3566 4456 4458 28
3567 4456 4459 28
3568 4456 4460 28
3569 4461 4462 28
3570 4461 4463 28
3571 4461 4464 28
3572 4461 4465 28
3573 4466 4467 28
3574 4466 4468 28
3575 4466 4469 28
3576 4466 4470 28
3577 4471 4472 28
3578 4471 4473 28
3579 4471 4474 28
3580 4471 4475 28
3581 4476 4477 28
3582 4476 4478 28
3583 4476 4479 28
3584 4476 4480 28
3585 4481 4482 28
3586 4481 4483 28
3587 4481 4484 28
3588 4481 4485 28
3589 4486 4487 28
3590 4486 4488 28
3591 4486 4489 28
3592 4486 4490 28
3593 4491 4492 28
3594 4491 4493 28
3595 4491 4494 28
3596 4491 4495 28
3597 4496 4497 28
3598 4496 4498 28
3599 4496 4499 28
3600 4496 4500 28
3601 4501 4502 28
3602 4501 4503 28
3603 4501 4504 28
3604 4501 4505 28
3605 4506 4507 28
3606 4506 4508 28
3607 4506 4509 28
3608 4506 4510 28
3609 4511 4512 28
3610 4511 4513 28
3611 4511 4514 28
3612 4511 4515 28
3613 4516 4517 28
3614 4516 4518 28
3615 4516 4519 28
3616 4516 4520 28
3617 4521 4522 28
3618 4521 4523 28
3619 4521 4524 28
3620 4521 4525 28
3621 4526 4527 28
3622 4526 4528 28
3623 4526 4529 28
3624 4526 4530 28
3625 4531 4532 28
3626 4531 4533 28
3627 4531 4534 28
3628 4531 4535 28
3629 4536 4537 28
3630 4536 4538 28
3631 4536 4539 28
3632 4536 4540 28
3633 4541 4542 28
3634 4541 4543 28
3635 4541 4544 28
3636 4541 4545 28
3637 4546 4547 28
3638 4546 4548 28
3639 4546 4549 28
3640 4546 4550 28
3641 4551 4552 28
3642 4551 4553 28
3643 4551 4554 28
3644 4551 4555 28
3645 4556 4557 28
3646 4556 4558 28
3647 4556 4559 28
3648 4556 4560 28
3649 4561 4562 28
3650 4561 4563 28
3651 4561 4564 28
3652 4561 4565 28
3653 4566 4567 28
3654 4566 4568 28
3655 4566 4569 28
3656 4566 4570 28
3657 4571 4572 28
3658 4571 4573 28
3659 4571 4574 28
3660 4571 4575 28
3661 4576 4577 28
3662 4576 4578 28
3663 4576 4579 28
3664 4576 4580 28
3665 4581 4582 28
3666 4581 4583 28
3667 4581 4584 28
3668 4581 4585 28
3669 4586 4587 28
3670 4586 4588 28
3671 4586 4589 28
3672 4586 4590 28
3673 4591 4592 28
3674 4591 4593 28
3675 4591 4594 28
3676 4591 4595 28
3677 4596 4597 28
3678 4596 4598 28
3679 4596 4599 28
3680 4596 4600 28
3681 4601 4602 28
3682 4601 4603 28
3683 4601 4604 28
3684 4601 4605 28
3685 4606 4607 28
3686 4606 4608 28
3687 4606 4609 28
3688 4606 4610 28
3689 4611 4612 28
3690 4611 4613 28
3691 4611 4614 28
3692 4611 4615 28
3693 4616 4617 28
3694 4616 4618 28
3695 4616 4619 28
3696 4616 4620 28
3697 4621 4622 28
3698 4621 4623 28
3699 4621 4624 28
3700 4621 4625 28
3701 4626 4627 28
3702 4626 4628 28
3703 4626 4629 28
3704 4626 4630 28
3705 4631 4632 28
3706 4631 4633 28
3707 4631 4634 28
3708 4631 4635 28
3709 4636 4637 28
3710 4636 4638 28
3711 4636 4639 28
3712 4636 4640 28
3713 4641 4642 28
3714 4641 4643 28
3715 4641 4644 28
3716 4641 4645 28
3717 4646 4647 28
3718 4646 4648 28
3719 4646 4649 28
3720 4646 4650 28
3721 4651 4652 28
3722 4651 4653 28
3723 4651 4654 28
3724 4651 4655 28
3725 4656 4657 28
3726 4656 4658 28
3727 4656 4659 28
3728 4656 4660 28
3729 4661 4662 28
3730 4661 4663 28
3731 4661 4664 28
3732 4661 4665 28
3733 4666 4667 28
3734 4666 4668 28
3735 4666 4669 28
3736 4666 4670 28
3737 4671 4672 28
3738 4671 4673 28
3739 4671 4674 28
3740 4671 4675 28
3741 4676 4677 28
3742 4676 4678 28
3743 4676 4679 28
3744 4676 4680 28
3745 4681 4682 28
3746 4681 4683 28
3747 4681 4684 28
3748 4681 4685 28
3749 4686 4687 28
3750 4686 4688 28
3751 4686 4689 28
3752 4686 4690 28
3753 4691 4692 28
3754 4691 4693 28
3755 4691 4694 28
3756 4691 4695 28
3757 4696 4697 28
3758 4696 4698 28
3759 4696 4699 28
3760 4696 4700 28
3761 4701 4702 28
3762 4701 4703 28
3763 4701 4704 28
3764 4701 4705 28
3765 4706 4707 28
3766 4706 4708 28
3767 4706 4709 28
3768 4706 4710 28
3769 4711 4712 28
3770 4711 4713 28
3771 4711 4714 28
3772 4711 4715 28
3773 4716 4717 28
3774 4716 4718 28
3775 4716 4719 28
3776 4716 4720 28
3777 4721 4722 28
3778 4721 4723 28
3779 4721 4724 28
3780 4721 4725 28
3781 4726 4727 28
3782 4726 4728 28
3783 4726 4729 28
3784 4726 4730 28
3785 4731 4732 28
3786 4731 4733 28
3787 4731 4734 28
3788 4731 4735 28
3789 4736 4737 28
3790 4736 4738 28
3791 4736 4739 28
3792 4736 4740 28
3793 4741 4742 28
3794 4741 4743 28
3795 4741 4744 28
3796 4741 4745 28
3797 4746 4747 28
3798 4746 4748 28
3799 4746 4749 28
3800 4746 4750 28
3801 4751 4752 28
3802 4751 4753 28
3803 4751 4754 28
3804 4751 4755 28
3805 4756 4757 28
3806 4756 4758 28
3807 4756 4759 28
3808 4756 4760 28
3809 4761 4762 28
3810 4761 4763 28
3811 4761 4764 28
3812 4761 4765 28
3813 4766 4767 28
3814 4766 4768 28
3815 4766 4769 28
3816 4766 4770 28
3817 4771 4772 28
3818 4771 4773 28
3819 4771 4774 28
3820 4771 4775 28
3821 4776 4777 28
3822 4776 4778 28
3823 4776 4779 28
3824 4776 4780 28
3825 4781 4782 28
3826 4781 4783 28
3827 4781 4784 28
3828 4781 4785 28
3829 4786 4787 28
3830 4786 4788 28
3831 4786 4789 28
3832 4786 4790 28
3833 4791 4792 28
3834 4791 4793 28
3835 4791 4794 28
3836 4791 4795 28
3837 4796 4797 28
3838 4796 4798 28
3839 4796 4799 28
3840 4796 4800 28
3841 4801 4802 28
3842 4801 4803 28
3843 4801 4804 28
3844 4801 4805 28
3845 4806 4807 28
3846 4806 4808 28
3847 4806 4809 28
3848 4806 4810 28
3849 4811 4812 28
3850 4811 4813 28
3851 4811 4814 28
3852 4811 4815 28
3853 4816 4817 28
3854 4816 4818 28
3855 4816 4819 28
3856 4816 4820 28
3857 4821 4822 28
3858 4821 4823 28
3859 4821 4824 28
3860 4821 4825 28
3861 4826 4827 28
3862 4826 4828 28
3863 4826 4829 28
3864 4826 4830 28
3865 4831 4832 28
3866 4831 4833 28
3867 4831 4834 28
3868 4831 4835 28
3869 4836 4837 28
3870 4836 4838 28
3871 4836 4839 28
3872 4836 4840 28
3873 4841 4842 28
3874 4841 4843 28
3875 4841 4844 28
3876 4841 4845 28
3877 4846 4847 28
3878 4846 4848 28
3879 4846 4849 28
3880 4846 4850 28
3881 4851 4852 28
3882 4851 4853 28
3883 4851 4854 28
3884 4851 4855 28
3885 4856 4857 28
3886 4856 4858 28
3887 4856 4859 28
3888 4856 4860 28
3889 4861 4862 28
3890 4861 4863 28
3891 4861 4864 28
3892 4861 4865 28
3893 4866 4867 28
3894 4866 4868 28
3895 4866 4869 28
3896 4866 4870 28
3897 4871 4872 28
3898 4871 4873 28
3899 4871 4874 28
3900 4871 4875 28
3901 4876 4877 28
3902 4876 4878 28
3903 4876 4879 28
3904 4876 4880 28
3905 4881 4882 28
3906 4881 4883 28
3907 4881 4884 28
3908 4881 4885 28
3909 4886 4887 28
3910 4886 4888 28
3911 4886 4889 28
3912 4886 4890 28
3913 4891 4892 28
3914 4891 4893 28
3915 4891 4894 28
3916 4891 4895 28
3917 4896 4897 28
3918 4896 4898 28
3919 4896 4899 28
3920 4896 4900 28
3921 4901 4902 28
3922 4901 4903 28
3923 4901 4904 28
3924 4901 4905 28
3925 4906 4907 28
3926 4906 4908 28
3927 4906 4909 28
3928 4906 4910 28
3929 4911 4912 28
3930 4911 4913 28
3931 4911 4914 28
3932 4911 4915 28
3933 4916 4917 28
3934 4916 4918 28
3935 4916 4919 28
3936 4916 4920 28
3937 4921 4922 28
3938 4921 4923 28
3939 4921 4924 28
3940 4921 4925 28
3941 4926 4927 28
3942 4926 4928 28
3943 4926 4929 28
3944 4926 4930 28
3945 4931 4932 28
3946 4931 4933 28
3947 4931 4934 28
3948 4931 4935 28
3949 4936 4937 28
3950 4936 4938 28
3951 4936 4939 28
3952 4936 4940 28
3953 4941 4942 28
3954 4941 4943 28
3955 4941 4944 28
3956 4941 4945 28
3957 4946 4947 28
3958 4946 4948 28
3959 4946 4949 28
3960 4946 4950 28
3961 4951 4952 28
3962 4951 4953 28
3963 4951 4954 28
3964 4951 4955 28
3965 4956 4957 28
3966 4956 4958 28
3967 4956 4959 28
3968 4956 4960 28
3969 4961 4962 28
3970 4961 4963 28
3971 4961 4964 28
3972 4961 4965 28
3973 4966 4967 28
3974 4966 4968 28
3975 4966 4969 28
3976 4966 4970 28
3977 4971 4972 28
3978 4971 4973 28
3979 4971 4974 28
3980 4971 4975 28
3981 4976 4977 28
3982 4976 4978 28
3983 4976 4979 28
3984 4976 4980 28
3985 4981 4982 28
3986 4981 4983 28
3987 4981 4984 28
3988 4981 4985 28
3989 4986 4987 28
3990 4986 4988 28
3991 4986 4989 28
3992 4986 4990 28
3993 4991 4992 28
3994 4991 4993 28
3995 4991 4994 28
3996 4991 4995 28
3997 4996 4997 28
3998 4996 4998 28
3999 4996 4999 28
4000 4996 5000 28
4001 5001 5002 28
4002 5001 5003 28
4003 5001 5004 28
4004 5001 5005 28
4005 5006 5007 28
4006 5006 5008 28
4007 5006 5009 28
4008 5006 5010 28
4009 5011 5012 28
4010 5011 5013 28
4011 5011 5014 28
4012 5011 5015 28
4013 5016 5017 28
4014 5016 5018 28
4015 5016 5019 28
4016 5016 5020 28
4017 5021 5022 28
4018 5021 5023 28
4019 5021 5024 28
4020 5021 5025 28
4021 5026 5027 28
4022 5026 5028 28
4023 5026 5029 28
4024 5026 5030 28
4025 5031 5032 28
4026 5031 5033 28
4027 5031 5034 28
4028 5031 5035 28
4029 5036 5037 28
4030 5036 5038 28
4031 5036 5039 28
4032 5036 5040 28
4033 5041 5042 28
4034 5041 5043 28
4035 5041 5044 28
4036 5041 5045 28
4037 5046 5047 28
4038 5046 5048 28
4039 5046 5049 28
4040 5046 5050 28
4041 5051 5052 28
4042 5051 5053 28
4043 5051 5054 28
4044 5051 5055 28
4045 5056 5057 28
4046 5056 5058 28
4047 5056 5059 28
4048 5056 5060 28
4049 5061 5062 28
4050 5061 5063 28
4051 5061 5064 28
4052 5061 5065 28
4053 5066 5067 28
4054 5066 5068 28
4055 5066 5069 28
4056 5066 5070 28
4057 5071 5072 28
4058 5071 5073 28
4059 5071 5074 28
4060 5071 5075 28
4061 5076 5077 28
4062 5076 5078 28
4063 5076 5079 28
4064 5076 5080 28
4065 5081 5082 28
4066 5081 5083 28
4067 5081 5084 28
4068 5081 5085 28
4069 5086 5087 28
4070 5086 5088 28
4071 5086 5089 28
4072 5086 5090 28
4073 5091 5092 28
4074 5091 5093 28
4075 5091 5094 28
4076 5091 5095 28
4077 5096 5097 28
4078 5096 5098 28
4079 5096 5099 28
4080 5096 5100 28
4081 5101 5102 28
4082 5101 5103 28
4083 5101 5104 28
4084 5101 5105 28
4085 5106 5107 28
4086 5106 5108 28
4087 5106 5109 28
4088 5106 5110 28
4089 5111 5112 28
4090 5111 5113 28
4091 5111 5114 28
4092 5111 5115 28
4093 5116 5117 28
4094 5116 5118 28
4095 5116 5119 28
4096 5116 5120 28
4097 5121 5122 28
4098 5121 5123 28
4099 5121 5124 28
4100 5121 5125 28
4101 5126 5127 28
4102 5126 5128 28
4103 5126 5129 28
4104 5126 5130 28
4105 5131 5132 28
4106 5131 5133 28
4107 5131 5134 28
4108 5131 5135 28
4109 5136 5137 28
4110 5136 5138 28
4111 5136 5139 28
4112 5136 5140 28
4113 5141 5142 28
4114 5141 5143 28
4115 5141 5144 28
4116 5141 5145 28
4117 5146 5147 28
4118 5146 5148 28
4119 5146 5149 28
4120 5146 5150 28
4121 5151 5152 28
4122 5151 5153 28
4123 5151 5154 28
4124 5151 5155 28
4125 5156 5157 28
4126 5156 5158 28
4127 5156 5159 28
4128 5156 5160 28
4129 5161 5162 28
4130 5161 5163 28
4131 5161 5164 28
4132 5161 5165 28
4133 5166 5167 28
4134 5166 5168 28
4135 5166 5169 28
4136 5166 5170 28
4137 5171 5172 28
4138 5171 5173 28
4139 5171 5174 28
4140 5171 5175 28
4141 5176 5177 28
4142 5176 5178 28
4143 5176 5179 28
4144 5176 5180 28
4145 5181 5182 28
4146 5181 5183 28
4147 5181 5184 28
4148 5181 5185 28
4149 5186 5187 28
4150 5186 5188 28
4151 5186 5189 28
4152 5186 5190 28
4153 5191 5192 28
4154 5191 5193 28
4155 5191 5194 28
4156 5191 5195 28
4157 5196 5197 28
4158 5196 5198 28
4159 5196 5199 28
4160 5196 5200 28
4161 5201 5202 28
4162 5201 5203 28
4163 5201 5204 28
4164 5201 5205 28
4165 5206 5207 28
4166 5206 5208 28
4167 5206 5209 28
4168 5206 5210 28
4169 5211 5212 28
4170 5211 5213 28
4171 5211 5214 28
4172 5211 5215 28
4173 5216 5217 28
4174 5216 5218 28
4175 5216 5219 28
4176 5216 5220 28
4177 5221 5222 28
4178 5221 5223 28
4179 5221 5224 28
4180 5221 5225 28
4181 5226 5227 28
4182 5226 5228 28
4183 5226 5229 28
4184 5226 5230 28
4185 5231 5232 28
4186 5231 5233 28
4187 5231 5234 28
4188 5231 5235 28
4189 5236 5237 28
4190 5236 5238 28
4191 5236 5239 28
4192 5236 5240 28
4193 5241 5242 28
4194 5241 5243 28
4195 5241 5244 28
4196 5241 5245 28
4197 5246 5247 28
4198 5246 5248 28
4199 5246 5249 28
4200 5246 5250 28
4201 5251 5252 28
4202 5251 5253 28
4203 5251 5254 28
4204 5251 5255 28
4205 5256 5257 28
4206 5256 5258 28
4207 5256 5259 28
4208 5256 5260 28
4209 5261 5262 28
4210 5261 5263 28
4211 5261 5264 28
4212 5261 5265 28
4213 5266 5267 28
4214 5266 5268 28
4215 5266 5269 28
4216 5266 5270 28
4217 5271 5272 28
4218 5271 5273 28
4219 5271 5274 28
4220 5271 5275 28
4221 5276 5277 28
4222 5276 5278 28
4223 5276 5279 28
4224 5276 5280 28
4225 5281 5282 28
4226 5281 5283 28
4227 5281 5284 28
4228 5281 5285 28
4229 5286 5287 28
4230 5286 5288 28
4231 5286 5289 28
4232 5286 5290 28
4233 5291 5292 28
4234 5291 5293 28
4235 5291 5294 28
4236 5291 5295 28
4237 5296 5297 28
4238 5296 5298 28
4239 5296 5299 28
4240 5296 5300 28
4241 5301 5302 28
4242 5301 5303 28
4243 5301 5304 28
4244 5301 5305 28
4245 5306 5307 28
4246 5306 5308 28
4247 5306 5309 28
4248 5306 5310 28
4249 5311 5312 28
4250 5311 5313 28
4251 5311 5314 28
4252 5311 5315 28
4253 5316 5317 28
4254 5316 5318 28
4255 5316 5319 28
4256 5316 5320 28
4257 5321 5322 28
4258 5321 5323 28
4259 5321 5324 28
4260 5321 5325 28
4261 5326 5327 28
4262 5326 5328 28
4263 5326 5329 28
4264 5326 5330 28
4265 5331 5332 28
4266 5331 5333 28
4267 5331 5334 28
4268 5331 5335 28
4269 5336 5337 28
4270 5336 5338 28
4271 5336 5339 28
4272 5336 5340 28
4273 5341 5342 28
4274 5341 5343 28
4275 5341 5344 28
4276 5341 5345 28
4277 5346 5347 28
4278 5346 5348 28
4279 5346 5349 28
4280 5346 5350 28
4281 5351 5352 28
4282 5351 5353 28
4283 5351 5354 28
4284 5351 5355 28
4285 5356 5357 28
4286 5356 5358 28
4287 5356 5359 28
4288 5356 5360 28
4289 5361 5362 28
4290 5361 5363 28
4291 5361 5364 28
4292 5361 5365 28
4293 5366 5367 28
4294 5366 5368 28
4295 5366 5369 28
4296 5366 5370 28
4297 5371 5372 28
4298 5371 5373 28
4299 5371 5374 28
4300 5371 5375 28
4301 5376 5377 28
4302 5376 5378 28
4303 5376 5379 28
4304 5376 5380 28
4305 5381 5382 28
4306 5381 5383 28
4307 5381 5384 28
4308 5381 5385 28
4309 5386 5387 28
4310 5386 5388 28
4311 5386 5389 28
4312 5386 5390 28
4313 5391 5392 28
4314 5391 5393 28
4315 5391 5394 28
4316 5391 5395 28
4317 5396 5397 28
4318 5396 5398 28
4319 5396 5399 28
4320 5396 5400 28
4321 5401 5402 28
4322 5401 5403 28
4323 5401 5404 28
4324 5401 5405 28
4325 5406 5407 28
4326 5406 5408 28
4327 5406 5409 28
4328 5406 5410 28
4329 5411 5412 28
4330 5411 5413 28
4331 5411 5414 28
4332 5411 5415 28
4333 5416 5417 28
4334 5416 5418 28
4335 5416 5419 28
4336 5416 5420 28
4337 5421 5422 28
4338 5421 5423 28
4339 5421 5424 28
4340 5421 5425 28
4341 5426 5427 28
4342 5426 5428 28
4343 5426 5429 28
4344 5426 5430 28
4345 5431 5432 28
4346 5431 5433 28
4347 5431 5434 28
4348 5431 5435 28
4349 5436 5437 28
4350 5436 5438 28
4351 5436 5439 28
4352 5436 5440 28
4353 5441 5442 28
4354 5441 5443 28
4355 5441 5444 28
4356 5441 5445 28
4357 5446 5447 28
4358 5446 5448 28
4359 5446 5449 28
4360 5446 5450 28
4361 5451 5452 28
4362 5451 5453 28
4363 5451 5454 28
4364 5451 5455 28
4365 5456 5457 28
4366 5456 5458 28
4367 5456 5459 28
4368 5456 5460 28
4369 5461 5462 28
4370 5461 5463 28
4371 5461 5464 28
4372 5461 5465 28
4373 5466 5467 28
4374 5466 5468 28
4375 5466 5469 28
4376 5466 5470 28
4377 5471 5472 28
4378 5471 5473 28
4379 5471 5474 28
4380 5471 5475 28
4381 5476 5477 28
4382 5476 5478 28
4383 5476 5479 28
4384 5476 5480 28
4385 5481 5482 28
4386 5481 5483 28
4387 5481 5484 28
4388 5481 5485 28
4389 5486 5487 28
4390 5486 5488 28
4391 5486 5489 28
4392 5486 5490 28
4393 5491 5492 28
4394 5491 5493 28
4395 5491 5494 28
4396 5491 5495 28
4397 5496 5497 28
4398 5496 5498 28
4399 5496 5499 28
4400 5496 5500 28
4401 5501 5502 28
4402 5501 5503 28
4403 5501 5504 28
4404 5501 5505 28
4405 5506 5507 28
4406 5506 5508 28
4407 5506 5509 28
4408 5506 5510 28
4409 5511 5512 28
4410 5511 5513 28
4411 5511 5514 28
4412 5511 5515 28
4413 5516 5517 28
4414 5516 5518 28
4415 5516 5519 28
4416 5516 5520 28
4417 5521 5522 28
4418 5521 5523 28
4419 5521 5524 28
4420 5521 5525 28
4421 5526 5527 28
4422 5526 5528 28
4423 5526 5529 28
4424 5526 5530 28
4425 5531 5532 28
4426 5531 5533 28
4427 5531 5534 28
4428 5531 5535 28
4429 5536 5537 28
4430 5536 5538 28
4431 5536 5539 28
4432 5536 5540 28
4433 5541 5542 28
4434 5541 5543 28
4435 5541 5544 28
4436 5541 5545 28
4437 5546 5547 28
4438 5546 5548 28
4439 5546 5549 28
4440 5546 5550 28
4441 5551 5552 28
4442 5551 5553 28
4443 5551 5554 28
4444 5551 5555 28
4445 5556 5557 28
4446 5556 5558 28
4447 5556 5559 28
4448 5556 5560 28
4449 5561 5562 28
4450 5561 5563 28
4451 5561 5564 28
4452 5561 5565 28
4453 5566 5567 28
4454 5566 5568 28
4455 5566 5569 28
4456 5566 5570 28
4457 5571 5572 28
4458 5571 5573 28
4459 5571 5574 28
4460 5571 5575 28
4461 5576 5577 28
4462 5576 5578 28
4463 5576 5579 28
4464 5576 5580 28
4465 5581 5582 28
4466 5581 5583 28
4467 5581 5584 28
4468 5581 5585 28
4469 5586 5587 28
4470 5586 5588 28
4471 5586 5589 28
4472 5586 5590 28
4473 5591 5592 28
4474 5591 5593 28
4475 5591 5594 28
4476 5591 5595 28
4477 5596 5597 28
4478 5596 5598 28
4479 5596 5599 28
4480 5596 5600 28
4481 5601 5602 28
4482 5601 5603 28
4483 5601 5604 28
4484 5601 5605 28
4485 5606 5607 28
4486 5606 5608 28
4487 5606 5609 28
4488 5606 5610 28
4489 5611 5612 28
4490 5611 5613 28
4491 5611 5614 28
4492 5611 5615 28
4493 5616 5617 28
4494 5616 5618 28
4495 5616 5619 28
4496 5616 5620 28
4497 5621 5622 28
4498 5621 5623 28
4499 5621 5624 28
4500 5621 5625 28
4501 5626 5627 28
4502 5626 5628 28
4503 5626 5629 28
4504 5626 5630 28
4505 5631 5632 28
4506 5631 5633 28
4507 5631 5634 28
4508 5631 5635 28
4509 5636 5637 28
4510 5636 5638 28
4511 5636 5639 28
4512 5636 5640 28
4513 5641 5642 28
4514 5641 5643 28
4515 5641 5644 28
4516 5641 5645 28
4517 5646 5647 28
4518 5646 5648 28
4519 5646 5649 28
4520 5646 5650 28
4521 5651 5652 28
4522 5651 5653 28
4523 5651 5654 28
4524 5651 5655 28
4525 5656 5657 28
4526 5656 5658 28
4527 5656 5659 28
4528 5656 5660 28
4529 5661 5662 28
4530 5661 5663 28
4531 5661 5664 28
4532 5661 5665 28
4533 5666 5667 28
4534 5666 5668 28
4535 5666 5669 28
4536 5666 5670 28
4537 5671 5672 28
4538 5671 5673 28
4539 5671 5674 28
4540 5671 5675 28
4541 5676 5677 28
4542 5676 5678 28
4543 5676 5679 28
4544 5676 5680 28
4545 5681 5682 28
4546 5681 5683 28
4547 5681 5684 28
4548 5681 5685 28
4549 5686 5687 28
4550 5686 5688 28
4551 5686 5689 28
4552 5686 5690 28
4553 5691 5692 28
4554 5691 5693 28
4555 5691 5694 28
4556 5691 5695 28
4557 5696 5697 28
4558 5696 5698 28
4559 5696 5699 28
4560 5696 5700 28
4561 5701 5702 28
4562 5701 5703 28
4563 5701 5704 28
4564 5701 5705 28
4565 5706 5707 28
4566 5706 5708 28
4567 5706 5709 28
4568 5706 5710 28
4569 5711 5712 28
4570 5711 5713 28
4571 5711 5714 28
4572 5711 5715 28
4573 5716 5717 28
4574 5716 5718 28
4575 5716 5719 28
4576 5716 5720 28
4577 5721 5722 28
4578 5721 5723 28
4579 5721 5724 28
4580 5721 5725 28
4581 5726 5727 28
4582 5726 5728 28
4583 5726 5729 28
4584 5726 5730 28
4585 5731 5732 28
4586 5731 5733 28
4587 5731 5734 28
4588 5731 5735 28
4589 5736 5737 28
4590 5736 5738 28
4591 5736 5739 28
4592 5736 5740 28
4593 5741 5742 28
4594 5741 5743 28
4595 5741 5744 28
4596 5741 5745 28
4597 5746 5747 28
4598 5746 5748 28
4599 5746 5749 28
4600 5746 5750 28
4601 5751 5752 28
4602 5751 5753 28
4603 5751 5754 28
4604 5751 5755 28
4605 5756 5757 28
4606 5756 5758 28
4607 5756 5759 28
4608 5756 5760 28
4609 5761 5762 28
4610 5761 5763 28
4611 5761 5764 28
4612 5761 5765 28
4613 5766 5767 28
4614 5766 5768 28
4615 5766 5769 28
4616 5766 5770 28
4617 5771 5772 28
4618 5771 5773 28
4619 5771 5774 28
4620 5771 5775 28
4621 5776 5777 28
4622 5776 5778 28
4623 5776 5779 28
4624 5776 5780 28
4625 5781 5782 28
4626 5781 5783 28
4627 5781 5784 28
4628 5781 5785 28
4629 5786 5787 28
4630 5786 5788 28
4631 5786 5789 28
4632 5786 5790 28
4633 5791 5792 28
4634 5791 5793 28
4635 5791 5794 28
4636 5791 5795 28
4637 5796 5797 28
4638 5796 5798 28
4639 5796 5799 28
4640 5796 5800 28
4641 5801 5802 28
4642 5801 5803 28
4643 5801 5804 28
4644 5801 5805 28
4645 5806 5807 28
4646 5806 5808 28
4647 5806 5809 28
4648 5806 5810 28
4649 5811 5812 28
4650 5811 5813 28
4651 5811 5814 28
4652 5811 5815 28
4653 5816 5817 28
4654 5816 5818 28
4655 5816 5819 28
4656 5816 5820 28
4657 5821 5822 28
4658 5821 5823 28
4659 5821 5824 28
4660 5821 5825 28
4661 5826 5827 28
4662 5826 5828 28
4663 5826 5829 28
4664 5826 5830 28
4665 5831 5832 28
4666 5831 5833 28
4667 5831 5834 28
4668 5831 5835 28
4669 5836 5837 28
4670 5836 5838 28
4671 5836 5839 28
4672 5836 5840 28
4673 5841 5842 28
4674 5841 5843 28
4675 5841 5844 28
4676 5841 5845 28
4677 5846 5847 28
4678 5846 5848 28
4679 5846 5849 28
4680 5846 5850 28
4681 5851 5852 28
4682 5851 5853 28
4683 5851 5854 28
4684 5851 5855 28
4685 5856 5857 28
4686 5856 5858 28
4687 5856 5859 28
4688 5856 5860 28
4689 5861 5862 28
4690 5861 5863 28
4691 5861 5864 28
4692 5861 5865 28
4693 5866 5867 28
4694 5866 5868 28
4695 5866 5869 28
4696 5866 5870 28
4697 5871 5872 28
4698 5871 5873 28
4699 5871 5874 28
4700 5871 5875 28
4701 5876 5877 28
4702 5876 5878 28
4703 5876 5879 28
4704 5876 5880 28
4705 5881 5882 28
4706 5881 5883 28
4707 5881 5884 28
4708 5881 5885 28
4709 5886 5887 28
4710 5886 5888 28
4711 5886 5889 28
4712 5886 5890 28
4713 5891 5892 28
4714 5891 5893 28
4715 5891 5894 28
4716 5891 5895 28
4717 5896 5897 28
4718 5896 5898 28
4719 5896 5899 28
4720 5896 5900 28
4721 5901 5902 28
4722 5901 5903 28
4723 5901 5904 28
4724 5901 5905 28
4725 5906 5907 28
4726 5906 5908 28
4727 5906 5909 28
4728 5906 5910 28
4729 5911 5912 28
4730 5911 5913 28
4731 5911 5914 28
4732 5911 5915 28
4733 5916 5917 28
4734 5916 5918 28
4735 5916 5919 28
4736 5916 5920 28
4737 5921 5922 28
4738 5921 5923 28
4739 5921 5924 28
4740 5921 5925 28
4741 5926 5927 28
4742 5926 5928 28
4743 5926 5929 28
4744 5926 5930 28
4745 5931 5932 28
4746 5931 5933 28
4747 5931 5934 28
4748 5931 5935 28
4749 5936 5937 28
4750 5936 5938 28
4751 5936 5939 28
4752 5936 5940 28
4753 5941 5942 28
4754 5941 5943 28
4755 5941 5944 28
4756 5941 5945 28
4757 5946 5947 28
4758 5946 5948 28
4759 5946 5949 28
4760 5946 5950 28
4761 5951 5952 28
4762 5951 5953 28
4763 5951 5954 28
4764 5951 5955 28
4765 5956 5957 28
4766 5956 5958 28
4767 5956 5959 28
4768 5956 5960 28
4769 5961 5962 28
4770 5961 5963 28
4771 5961 5964 28
4772 5961 5965 28
4773 5966 5967 28
4774 5966 5968 28
4775 5966 5969 28
4776 5966 5970 28
4777 5971 5972 28
4778 5971 5973 28
4779 5971 5974 28
4780 5971 5975 28
4781 5976 5977 28
4782 5976 5978 28
4783 5976 5979 28
4784 5976 5980 28
4785 5981 5982 28
4786 5981 5983 28
4787 5981 5984 28
4788 5981 5985 28
4789 5986 5987 28
4790 5986 5988 28
4791 5986 5989 28
4792 5986 5990 28
4793 5991 5992 28
4794 5991 5993 28
4795 5991 5994 28
4796 5991 5995 28
4797 5996 5997 28
4798 5996 5998 28
4799 5996 5999 28
4800 5996 6000 28
4801 6001 6002 28
4802 6001 6003 28
4803 6001 6004 28
4804 6001 6005 28
4805 6006 6007 28
4806 6006 6008 28
4807 6006 6009 28
4808 6006 6010 28
4809 6011 6012 28
4810 6011 6013 28
4811 6011 6014 28
4812 6011 6015 28
4813 6016 6017 28
4814 6016 6018 28
4815 6016 6019 28
4816 6016 6020 28
4817 6021 6022 28
4818 6021 6023 28
4819 6021 6024 28
4820 6021 6025 28
4821 6026 6027 28
4822 6026 6028 28
4823 6026 6029 28
4824 6026 6030 28
4825 6031 6032 28
4826 6031 6033 28
4827 6031 6034 28
4828 6031 6035 28
4829 6036 6037 28
4830 6036 6038 28
4831 6036 6039 28
4832 6036 6040 28
4833 6041 6042 28
4834 6041 6043 28
4835 6041 6044 28
4836 6041 6045 28
4837 6046 6047 28
4838 6046 6048 28
4839 6046 6049 28
4840 6046 6050 28
4841 6051 6052 28
4842 6051 6053 28
4843 6051 6054 28
4844 6051 6055 28
4845 6056 6057 28
4846 6056 6058 28
4847 6056 6059 28
4848 6056 6060 28
4849 6061 6062 28
4850 6061 6063 28
4851 6061 6064 28
4852 6061 6065 28
4853 6066 6067 28
4854 6066 6068 28
4855 6066 6069 28
4856 6066 6070 28
4857 6071 6072 28
4858 6071 6073 28
4859 6071 6074 28
4860 6071 6075 28
4861 6076 6077 28
4862 6076 6078 28
4863 6076 6079 28
4864 6076 6080 28
4865 6081 6082 28
4866 6081 6083 28
4867 6081 6084 28
4868 6081 6085 28
4869 6086 6087 28
4870 6086 6088 28
4871 6086 6089 28
4872 6086 6090 28
4873 6091 6092 28
4874 6091 6093 28
4875 6091 6094 28
4876 6091 6095 28
4877 6096 6097 28
4878 6096 6098 28
4879 6096 6099 28
4880 6096 6100 28
4881 6101 6102 28
4882 6101 6103 28
4883 6101 6104 28
4884 6101 6105 28
4885 6106 6107 28
4886 6106 6108 28
4887 6106 6109 28
4888 6106 6110 28
4889 6111 6112 28
4890 6111 6113 28
4891 6111 6114 28
4892 6111 6115 28
4893 6116 6117 28
4894 6116 6118 28
4895 6116 6119 28
4896 6116 6120 28
4897 6121 6122 28
4898 6121 6123 28
4899 6121 6124 28
4900 6121 6125 28
4901 6126 6127 28
4902 6126 6128 28
4903 6126 6129 28
4904 6126 6130 28
4905 6131 6132 28
4906 6131 6133 28
4907 6131 6134 28
4908 6131 6135 28
4909 6136 6137 28
4910 6136 6138 28
4911 6136 6139 28
4912 6136 6140 28
4913 6141 6142 28
4914 6141 6143 28
4915 6141 6144 28
4916 6141 6145 28
4917 6146 6147 28
4918 6146 6148 28
4919 6146 6149 28
4920 6146 6150 28
4921 6151 6152 28
4922 6151 6153 28
4923 6151 6154 28
4924 6151 6155 28
4925 6156 6157 28
4926 6156 6158 28
4927 6156 6159 28
4928 6156 6160 28
4929 6161 6162 28
4930 6161 6163 28
4931 6161 6164 28
4932 6161 6165 28
4933 6166 6167 28
4934 6166 6168 28
4935 6166 6169 28
4936 6166 6170 28
4937 6171 6172 28
4938 6171 6173 28
4939 6171 6174 28
4940 6171 6175 28
4941 6176 6177 28
4942 6176 6178 28
4943 6176 6179 28
4944 6176 6180 28
4945 6181 6182 28
4946 6181 6183 28
4947 6181 6184 28
4948 6181 6185 28
4949 6186 6187 28
4950 6186 6188 28
4951 6186 6189 28
4952 6186 6190 28
4953 6191 6192 28
4954 6191 6193 28
4955 6191 6194 28
4956 6191 6195 28
4957 6196 6197 28
4958 6196 6198 28
4959 6196 6199 28
4960 6196 6200 28
4961 6201 6202 28
4962 6201 6203 28
4963 6201 6204 28
4964 6201 6205 28
4965 6206 6207 28
4966 6206 6208 28
4967 6206 6209 28
4968 6206 6210 28
4969 6211 6212 28
4970 6211 6213 28
4971 6211 6214 28
4972 6211 6215 28
4973 6216 6217 28
4974 6216 6218 28
4975 6216 6219 28
4976 6216 6220 28
4977 6221 6222 28
4978 6221 6223 28
4979 6221 6224 28
4980 6221 6225 28
4981 6226 6227 28
4982 6226 6228 28
4983 6226 6229 28
4984 6226 6230 28
4985 6231 6232 28
4986 6231 6233 28
4987 6231 6234 28
4988 6231 6235 28
4989 6236 6237 28
4990 6236 6238 28
4991 6236 6239 28
4992 6236 6240 28
4993 6241 6242 28
4994 6241 6243 28
4995 6241 6244 28
4996 6241 6245 28
4997 6246 6247 28
4998 6246 6248 28
4999 6246 6249 28
5000 6246 6250 28
5001 6251 6252 28
5002 6251 6253 28
5003 6251 6254 28
5004 6251 6255 28
5005 6256 6257 28
5006 6256 6258 28
5007 6256 6259 28
5008 6256 6260 28
5009 6261 6262 28
5010 6261 6263 28
5011 6261 6264 28
5012 6261 6265 28
5013 6266 6267 28
5014 6266 6268 28
5015 6266 6269 28
5016 6266 6270 28
5017 6271 6272 28
5018 6271 6273 28
5019 6271 6274 28
5020 6271 6275 28
5021 6276 6277 28
5022 6276 6278 28
5023 6276 6279 28
5024 6276 6280 28
5025 6281 6282 28
5026 6281 6283 28
5027 6281 6284 28
5028 6281 6285 28
5029 6286 6287 28
5030 6286 6288 28
5031 6286 6289 28
5032 6286 6290 28
5033 6291 6292 28
5034 6291 6293 28
5035 6291 6294 28
5036 6291 6295 28
5037 6296 6297 28
5038 6296 6298 28
5039 6296 6299 28
5040 6296 6300 28
5041 6301 6302 28
5042 6301 6303 28
5043 6301 6304 28
5044 6301 6305 28
5045 6306 6307 28
5046 6306 6308 28
5047 6306 6309 28
5048 6306 6310 28
5049 6311 6312 28
5050 6311 6313 28
5051 6311 6314 28
5052 6311 6315 28
5053 6316 6317 28
5054 6316 6318 28
5055 6316 6319 28
5056 6316 6320 28
5057 6321 6322 28
5058 6321 6323 28
5059 6321 6324 28
5060 6321 6325 28
5061 6326 6327 28
5062 6326 6328 28
5063 6326 6329 28
5064 6326 6330 28
5065 6331 6332 28
5066 6331 6333 28
5067 6331 6334 28
5068 6331 6335 28
5069 6336 6337 28
5070 6336 6338 28
5071 6336 6339 28
5072 6336 6340 28
5073 6341 6342 28
5074 6341 6343 28
5075 6341 6344 28
5076 6341 6345 28
5077 6346 6347 28
5078 6346 6348 28
5079 6346 6349 28
5080 6346 6350 28
5081 6351 6352 28
5082 6351 6353 28
5083 6351 6354 28
5084 6351 6355 28
5085 6356 6357 28
5086 6356 6358 28
5087 6356 6359 28
5088 6356 6360 28
5089 6361 6362 28
5090 6361 6363 28
5091 6361 6364 28
5092 6361 6365 28
5093 6366 6367 28
5094 6366 6368 28
5095 6366 6369 28
5096 6366 6370 28
5097 6371 6372 28
5098 6371 6373 28
5099 6371 6374 28
5100 6371 6375 28
5101 6376 6377 28
5102 6376 6378 28
5103 6376 6379 28
5104 6376 6380 28
5105 6381 6382 28
5106 6381 6383 28
5107 6381 6384 28
5108 6381 6385 28
5109 6386 6387 28
5110 6386 6388 28
5111 6386 6389 28
5112 6386 6390 28
5113 6391 6392 28
5114 6391 6393 28
5115 6391 6394 28
5116 6391 6395 28
5117 6396 6397 28
5118 6396 6398 28
5119 6396 6399 28
5120 6396 6400 28
5121 6401 6402 28
5122 6401 6403 28
5123 6401 6404 28
5124 6401 6405 28
5125 6406 6407 28
5126 6406 6408 28
5127 6406 6409 28
5128 6406 6410 28
5129 6411 6412 28
5130 6411 6413 28
5131 6411 6414 28
5132 6411 6415 28
5133 6416 6417 28
5134 6416 6418 28
5135 6416 6419 28
5136 6416 6420 28
5137 6421 6422 28
5138 6421 6423 28
5139 6421 6424 28
5140 6421 6425 28
5141 6426 6427 28
5142 6426 6428 28
5143 6426 6429 28
5144 6426 6430 28
5145 6431 6432 28
5146 6431 6433 28
5147 6431 6434 28
5148 6431 6435 28
5149 6436 6437 28
5150 6436 6438 28
5151 6436 6439 28
5152 6436 6440 28
5153 6441 6442 28
5154 6441 6443 28
5155 6441 6444 28
5156 6441 6445 28
5157 6446 6447 28
5158 6446 6448 28
5159 6446 6449 28
5160 6446 6450 28
5161 6451 6452 28
5162 6451 6453 28
5163 6451 6454 28
5164 6451 6455 28
5165 6456 6457 28
5166 6456 6458 28
5167 6456 6459 28
5168 6456 6460 28
5169 6461 6462 28
5170 6461 6463 28
5171 6461 6464 28
5172 6461 6465 28
5173 6466 6467 28
5174 6466 6468 28
5175 6466 6469 28
5176 6466 6470 28
5177 6471 6472 28
5178 6471 6473 28
5179 6471 6474 28
5180 6471 6475 28
5181 6476 6477 28
5182 6476 6478 28
5183 6476 6479 28
5184 6476 6480 28
5185 6481 6482 28
5186 6481 6483 28
5187 6481 6484 28
5188 6481 6485 28
5189 6486 6487 28
5190 6486 6488 28
5191 6486 6489 28
5192 6486 6490 28
5193 6491 6492 28
5194 6491 6493 28
5195 6491 6494 28
5196 6491 6495 28
5197 6496 6497 28
5198 6496 6498 28
5199 6496 6499 28
5200 6496 6500 28
5201 6501 6502 28
5202 6501 6503 28
5203 6501 6504 28
5204 6501 6505 28
5205 6506 6507 28
5206 6506 6508 28
5207 6506 6509 28
5208 6506 6510 28
5209 6511 6512 28
5210 6511 6513 28
5211 6511 6514 28
5212 6511 6515 28
5213 6516 6517 28
5214 6516 6518 28
5215 6516 6519 28
5216 6516 6520 28
5217 6521 6522 28
5218 6521 6523 28
5219 6521 6524 28
5220 6521 6525 28
5221 6526 6527 28
5222 6526 6528 28
5223 6526 6529 28
5224 6526 6530 28
5225 6531 6532 28
5226 6531 6533 28
5227 6531 6534 28
5228 6531 6535 28
5229 6536 6537 28
5230 6536 6538 28
5231 6536 6539 28
5232 6536 6540 28
5233 6541 6542 28
5234 6541 6543 28
5235 6541 6544 28
5236 6541 6545 28
5237 6546 6547 28
5238 6546 6548 28
5239 6546 6549 28
5240 6546 6550 28
5241 6551 6552 28
5242 6551 6553 28
5243 6551 6554 28
5244 6551 6555 28
5245 6556 6557 28
5246 6556 6558 28
5247 6556 6559 28
5248 6556 6560 28
5249 6561 6562 28
5250 6561 6563 28
5251 6561 6564 28
5252 6561 6565 28
5253 6566 6567 28
5254 6566 6568 28
5255 6566 6569 28
5256 6566 6570 28
5257 6571 6572 28
5258 6571 6573 28
5259 6571 6574 28
5260 6571 6575 28
5261 6576 6577 28
5262 6576 6578 28
5263 6576 6579 28
5264 6576 6580 28
5265 6581 6582 28
5266 6581 6583 28
5267 6581 6584 28
5268 6581 6585 28
5269 6586 6587 28
5270 6586 6588 28
5271 6586 6589 28
5272 6586 6590 28
5273 6591 6592 28
5274 6591 6593 28
5275 6591 6594 28
5276 6591 6595 28
5277 6596 6597 28
5278 6596 6598 28
5279 6596 6599 28
5280 6596 6600 28
5281 6601 6602 28
5282 6601 6603 28
5283 6601 6604 28
5284 6601 6605 28
5285 6606 6607 28
5286 6606 6608 28
5287 6606 6609 28
5288 6606 6610 28
5289 6611 6612 28
5290 6611 6613 28
5291 6611 6614 28
5292 6611 6615 28
5293 6616 6617 28
5294 6616 6618 28
5295 6616 6619 28
5296 6616 6620 28
5297 6621 6622 28
5298 6621 6623 28
5299 6621 6624 28
5300 6621 6625 28
5301 6626 6627 28
5302 6626 6628 28
5303 6626 6629 28
5304 6626 6630 28
5305 6631 6632 28
5306 6631 6633 28
5307 6631 6634 28
5308 6631 6635 28
5309 6636 6637 28
5310 6636 6638 28
5311 6636 6639 28
5312 6636 6640 28
5313 6641 6642 28
5314 6641 6643 28
5315 6641 6644 28
5316 6641 6645 28
5317 6646 6647 28
5318 6646 6648 28
5319 6646 6649 28
5320 6646 6650 28
5321 6651 6652 28
5322 6651 6653 28
5323 6651 6654 28
5324 6651 6655 28
5325 6656 6657 28
5326 6656 6658 28
5327 6656 6659 28
5328 6656 6660 28
5329 6661 6662 28
5330 6661 6663 28
5331 6661 6664 28
5332 6661 6665 28
5333 6666 6667 28
5334 6666 6668 28
5335 6666 6669 28
5336 6666 6670 28
5337 6671 6672 28
5338 6671 6673 28
5339 6671 6674 28
5340 6671 6675 28
5341 6676 6677 28
5342 6676 6678 28
5343 6676 6679 28
5344 6676 6680 28
5345 6681 6682 28
5346 6681 6683 28
5347 6681 6684 28
5348 6681 6685 28
5349 6686 6687 28
5350 6686 6688 28
5351 6686 6689 28
5352 6686 6690 28
5353 6691 6692 28
5354 6691 6693 28
5355 6691 6694 28
5356 6691 6695 28
5357 6696 6697 28
5358 6696 6698 28
5359 6696 6699 28
5360 6696 6700 28
5361 6701 6702 28
5362 6701 6703 28
5363 6701 6704 28
5364 6701 6705 28
5365 6706 6707 28
5366 6706 6708 28
5367 6706 6709 28
5368 6706 6710 28
5369 6711 6712 28
5370 6711 6713 28
5371 6711 6714 28
5372 6711 6715 28
5373 6716 6717 28
5374 6716 6718 28
5375 6716 6719 28
5376 6716 6720 28
5377 6721 6722 28
5378 6721 6723 28
5379 6721 6724 28
5380 6721 6725 28
5381 6726 6727 28
5382 6726 6728 28
5383 6726 6729 28
5384 6726 6730 28
5385 6731 6732 28
5386 6731 6733 28
5387 6731 6734 28
5388 6731 6735 28
5389 6736 6737 28
5390 6736 6738 28
5391 6736 6739 28
5392 6736 6740 28
5393 6741 6742 28
5394 6741 6743 28
5395 6741 6744 28
5396 6741 6745 28
5397 6746 6747 28
5398 6746 6748 28
5399 6746 6749 28
5400 6746 6750 28
5401 6751 6752 28
5402 6751 6753 28
5403 6751 6754 28
5404 6751 6755 28
5405 6756 6757 28
5406 6756 6758 28
5407 6756 6759 28
5408 6756 6760 28
5409 6761 6762 28
5410 6761 6763 28
5411 6761 6764 28
5412 6761 6765 28
5413 6766 6767 28
5414 6766 6768 28
5415 6766 6769 28
5416 6766 6770 28
5417 6771 6772 28
5418 6771 6773 28
5419 6771 6774 28
5420 6771 6775 28
5421 6776 6777 28
5422 6776 6778 28
5423 6776 6779 28
5424 6776 6780 28
5425 6781 6782 28
5426 6781 6783 28
5427 6781 6784 28
5428 6781 6785 28
5429 6786 6787 28
5430 6786 6788 28
5431 6786 6789 28
5432 6786 6790 28
5433 6791 6792 28
5434 6791 6793 28
5435 6791 6794 28
5436 6791 6795 28
5437 6796 6797 28
5438 6796 6798 28
5439 6796 6799 28
5440 6796 6800 28
5441 6801 6802 28
5442 6801 6803 28
5443 6801 6804 28
5444 6801 6805 28
5445 6806 6807 28
5446 6806 6808 28
5447 6806 6809 28
5448 6806 6810 28
5449 6811 6812 28
5450 6811 6813 28
5451 6811 6814 28
5452 6811 6815 28
5453 6816 6817 28
5454 6816 6818 28
5455 6816 6819 28
5456 6816 6820 28
5457 6821 6822 28
5458 6821 6823 28
5459 6821 6824 28
5460 6821 6825 28
5461 6826 6827 28
5462 6826 6828 28
5463 6826 6829 28
5464 6826 6830 28
5465 6831 6832 28
5466 6831 6833 28
5467 6831 6834 28
5468 6831 6835 28
5469 6836 6837 28
5470 6836 6838 28
5471 6836 6839 28
5472 6836 6840 28
5473 6841 6842 28
5474 6841 6843 28
5475 6841 6844 28
5476 6841 6845 28
5477 6846 6847 28
5478 6846 6848 28
5479 6846 6849 28
5480 6846 6850 28
5481 6851 6852 28
5482 6851 6853 28
5483 6851 6854 28
5484 6851 6855 28
5485 6856 6857 28
5486 6856 6858 28
5487 6856 6859 28
5488 6856 6860 28
5489 6861 6862 28
5490 6861 6863 28
5491 6861 6864 28
5492 6861 6865 28
5493 6866 6867 28
5494 6866 6868 28
5495 6866 6869 28
5496 6866 6870 28
5497 6871 6872 28
5498 6871 6873 28
5499 6871 6874 28
5500 6871 6875 28
5501 6876 6877 28
5502 6876 6878 28
5503 6876 6879 28
5504 6876 6880 28
5505 6881 6882 28
5506 6881 6883 28
5507 6881 6884 28
5508 6881 6885 28
5509 6886 6887 28
5510 6886 6888 28
5511 6886 6889 28
5512 6886 6890 28
5513 6891 6892 28
5514 6891 6893 28
5515 6891 6894 28
5516 6891 6895 28
5517 6896 6897 28
5518 6896 6898 28
5519 6896 6899 28
5520 6896 6900 28
5521 6901 6902 28
5522 6901 6903 28
5523 6901 6904 28
5524 6901 6905 28
5525 6906 6907 28
5526 6906 6908 28
5527 6906 6909 28
5528 6906 6910 28
5529 6911 6912 28
5530 6911 6913 28
5531 6911 6914 28
5532 6911 6915 28
5533 6916 6917 28
5534 6916 6918 28
5535 6916 6919 28
5536 6916 6920 28
5537 6921 6922 28
5538 6921 6923 28
5539 6921 6924 28
5540 6921 6925 28
5541 6926 6927 28
5542 6926 6928 28
5543 6926 6929 28
5544 6926 6930 28
5545 6931 6932 28
5546 6931 6933 28
5547 6931 6934 28
5548 6931 6935 28
5549 6936 6937 28
5550 6936 6938 28
5551 6936 6939 28
5552 6936 6940 28
5553 6941 6942 28
5554 6941 6943 28
5555 6941 6944 28
5556 6941 6945 28
5557 6946 6947 28
5558 6946 6948 28
5559 6946 6949 28
5560 6946 6950 28
5561 6951 6952 28
5562 6951 6953 28
5563 6951 6954 28
5564 6951 6955 28
5565 6956 6957 28
5566 6956 6958 28
5567 6956 6959 28
5568 6956 6960 28
5569 6961 6962 28
5570 6961 6963 28
5571 6961 6964 28
5572 6961 6965 28
5573 6966 6967 28
5574 6966 6968 28
5575 6966 6969 28
5576 6966 6970 28
5577 6971 6972 28
5578 6971 6973 28
5579 6971 6974 28
5580 6971 6975 28
5581 6976 6977 28
5582 6976 6978 28
5583 6976 6979 28
5584 6976 6980 28
5585 6981 6982 28
5586 6981 6983 28
5587 6981 6984 28
5588 6981 6985 28
5589 6986 6987 28
5590 6986 6988 28
5591 6986 6989 28
5592 6986 6990 28
5593 6991 6992 28
5594 6991 6993 28
5595 6991 6994 28
5596 6991 6995 28
5597 6996 6997 28
5598 6996 6998 28
5599 6996 6999 28
5600 6996 7000 28
5601 7001 7002 28
5602 7001 7003 28
5603 7001 7004 28
5604 7001 7005 28
5605 7006 7007 28
5606 7006 7008 28
5607 7006 7009 28
5608 7006 7010 28
5609 7011 7012 28
5610 7011 7013 28
5611 7011 7014 28
5612 7011 7015 28
5613 7016 7017 28
5614 7016 7018 28
5615 7016 7019 28
5616 7016 7020 28
5617 7021 7022 28
5618 7021 7023 28
5619 7021 7024 28
5620 7021 7025 28
5621 7026 7027 28
5622 7026 7028 28
5623 7026 7029 28
5624 7026 7030 28
5625 7031 7032 28
5626 7031 7033 28
5627 7031 7034 28
5628 7031 7035 28
5629 7036 7037 28
5630 7036 7038 28
5631 7036 7039 28
5632 7036 7040 28
5633 7041 7042 28
5634 7041 7043 28
5635 7041 7044 28
5636 7041 7045 28
5637 7046 7047 28
5638 7046 7048 28
5639 7046 7049 28
5640 7046 7050 28
5641 7051 7052 28
5642 7051 7053 28
5643 7051 7054 28
5644 7051 7055 28
5645 7056 7057 28
5646 7056 7058 28
5647 7056 7059 28
5648 7056 7060 28
5649 7061 7062 28
5650 7061 7063 28
5651 7061 7064 28
5652 7061 7065 28
5653 7066 7067 28
5654 7066 7068 28
5655 7066 7069 28
5656 7066 7070 28
5657 7071 7072 28
5658 7071 7073 28
5659 7071 7074 28
5660 7071 7075 28
5661 7076 7077 28
5662 7076 7078 28
5663 7076 7079 28
5664 7076 7080 28
5665 7081 7082 28
5666 7081 7083 28
5667 7081 7084 28
5668 7081 7085 28
5669 7086 7087 28
5670 7086 7088 28
5671 7086 7089 28
5672 7086 7090 28
5673 7091 7092 28
5674 7091 7093 28
5675 7091 7094 28
5676 7091 7095 28
5677 7096 7097 28
5678 7096 7098 28
5679 7096 7099 28
5680 7096 7100 28
5681 7101 7102 28
5682 7101 7103 28
5683 7101 7104 28
5684 7101 7105 28
5685 7106 7107 28
5686 7106 7108 28
5687 7106 7109 28
5688 7106 7110 28
5689 7111 7112 28
5690 7111 7113 28
5691 7111 7114 28
5692 7111 7115 28
5693 7116 7117 28
5694 7116 7118 28
5695 7116 7119 28
5696 7116 7120 28
5697 7121 7122 28
5698 7121 7123 28
5699 7121 7124 28
5700 7121 7125 28
5701 7126 7127 28
5702 7126 7128 28
5703 7126 7129 28
5704 7126 7130 28
5705 7131 7132 28
5706 7131 7133 28
5707 7131 7134 28
5708 7131 7135 28
5709 7136 7137 28
5710 7136 7138 28
5711 7136 7139 28
5712 7136 7140 28
5713 7141 7142 28
5714 7141 7143 28
5715 7141 7144 28
5716 7141 7145 28
5717 7146 7147 28
5718 7146 7148 28
5719 7146 7149 28
5720 7146 7150 28
5721 7151 7152 28
5722 7151 7153 28
5723 7151 7154 28
5724 7151 7155 28
5725 7156 7157 28
5726 7156 7158 28
5727 7156 7159 28
5728 7156 7160 28
5729 7161 7162 28
5730 7161 7163 28
5731 7161 7164 28
5732 7161 7165 28
5733 7166 7167 28
5734 7166 7168 28
5735 7166 7169 28
5736 7166 7170 28
5737 7171 7172 28
5738 7171 7173 28
5739 7171 7174 28
5740 7171 7175 28
5741 7176 7177 28
5742 7176 7178 28
5743 7176 7179 28
5744 7176 7180 28
5745 7181 7182 28
5746 7181 7183 28
5747 7181 7184 28
5748 7181 7185 28
5749 7186 7187 28
5750 7186 7188 28
5751 7186 7189 28
5752 7186 7190 28
5753 7191 7192 28
5754 7191 7193 28
5755 7191 7194 28
5756 7191 7195 28
5757 7196 7197 28
5758 7196 7198 28
5759 7196 7199 28
5760 7196 7200 28
5761 7201 7202 28
5762 7201 7203 28
5763 7201 7204 28
5764 7201 7205 28
5765 7206 7207 28
5766 7206 7208 28
5767 7206 7209 28
5768 7206 7210 28
5769 7211 7212 28
5770 7211 7213 28
5771 7211 7214 28
5772 7211 7215 28
5773 7216 7217 28
5774 7216 7218 28
5775 7216 7219 28
5776 7216 7220 28
5777 7221 7222 28
5778 7221 7223 28
5779 7221 7224 28
5780 7221 7225 28
5781 7226 7227 28
5782 7226 7228 28
5783 7226 7229 28
5784 7226 7230 28
5785 7231 7232 28
5786 7231 7233 28
5787 7231 7234 28
5788 7231 7235 28
5789 7236 7237 28
5790 7236 7238 28
5791 7236 7239 28
5792 7236 7240 28
5793 7241 7242 28
5794 7241 7243 28
5795 7241 7244 28
5796 7241 7245 28
5797 7246 7247 28
5798 7246 7248 28
5799 7246 7249 28
5800 7246 7250 28
5801 7251 7252 28
5802 7251 7253 28
5803 7251 7254 28
5804 7251 7255 28
5805 7256 7257 28
5806 7256 7258 28
5807 7256 7259 28
5808 7256 7260 28
5809 7261 7262 28
5810 7261 7263 28
5811 7261 7264 28
5812 7261 7265 28
5813 7266 7267 28
5814 7266 7268 28
5815 7266 7269 28
5816 7266 7270 28
5817 7271 7272 28
5818 7271 7273 28
5819 7271 7274 28
5820 7271 7275 28
5821 7276 7277 28
5822 7276 7278 28
5823 7276 7279 28
5824 7276 7280 28
5825 7281 7282 28
5826 7281 7283 28
5827 7281 7284 28
5828 7281 7285 28
5829 7286 7287 28
5830 7286 7288 28
5831 7286 7289 28
5832 7286 7290 28
5833 7291 7292 28
5834 7291 7293 28
5835 7291 7294 28
5836 7291 7295 28
5837 7296 7297 28
5838 7296 7298 28
5839 7296 7299 28
5840 7296 7300 28
5841 7301 7302 28
5842 7301 7303 28
5843 7301 7304 28
5844 7301 7305 28
5845 7306 7307 28
5846 7306 7308 28
5847 7306 7309 28
5848 7306 7310 28
5849 7311 7312 28
5850 7311 7313 28
5851 7311 7314 28
5852 7311 7315 28
5853 7316 7317 28
5854 7316 7318 28
5855 7316 7319 28
5856 7316 7320 28
5857 7321 7322 28
5858 7321 7323 28
5859 7321 7324 28
5860 7321 7325 28
5861 7326 7327 28
5862 7326 7328 28
5863 7326 7329 28
5864 7326 7330 28
5865 7331 7332 28
5866 7331 7333 28
5867 7331 7334 28
5868 7331 7335 28
5869 7336 7337 28
5870 7336 7338 28
5871 7336 7339 28
5872 7336 7340 28
5873 7341 7342 28
5874 7341 7343 28
5875 7341 7344 28
5876 7341 7345 28
5877 7346 7347 28
5878 7346 7348 28
5879 7346 7349 28
5880 7346 7350 28
5881 7351 7352 28
5882 7351 7353 28
5883 7351 7354 28
5884 7351 7355 28
5885 7356 7357 28
5886 7356 7358 28
5887 7356 7359 28
5888 7356 7360 28
5889 7361 7362 28
5890 7361 7363 28
5891 7361 7364 28
5892 7361 7365 28
5893 7366 7367 28
5894 7366 7368 28
5895 7366 7369 28
5896 7366 7370 28
5897 7371 7372 28
5898 7371 7373 28
5899 7371 7374 28
5900 7371 7375 28
5901 7376 7377 28
5902 7376 7378 28
5903 7376 7379 28
5904 7376 7380 28
5905 7381 7382 28
5906 7381 7383 28
5907 7381 7384 28
5908 7381 7385 28
5909 7386 7387 28
5910 7386 7388 28
5911 7386 7389 28
5912 7386 7390 28
5913 7391 7392 28
5914 7391 7393 28
5915 7391 7394 28
5916 7391 7395 28
5917 7396 7397 28
5918 7396 7398 28
5919 7396 7399 28
5920 7396 7400 28
5921 7401 7402 28
5922 7401 7403 28
5923 7401 7404 28
5924 7401 7405 28
5925 7406 7407 28
5926 7406 7408 28
5927 7406 7409 28
5928 7406 7410 28
5929 7411 7412 28
5930 7411 7413 28
5931 7411 7414 28
5932 7411 7415 28
5933 7416 7417 28
5934 7416 7418 28
5935 7416 7419 28
5936 7416 7420 28
5937 7421 7422 28
5938 7421 7423 28
5939 7421 7424 28
5940 7421 7425 28
5941 7426 7427 28
5942 7426 7428 28
5943 7426 7429 28
5944 7426 7430 28
5945 7431 7432 28
5946 7431 7433 28
5947 7431 7434 28
5948 7431 7435 28
5949 7436 7437 28
5950 7436 7438 28
5951 7436 7439 28
5952 7436 7440 28
5953 7441 7442 28
5954 7441 7443 28
5955 7441 7444 28
5956 7441 7445 28
5957 7446 7447 28
5958 7446 7448 28
5959 7446 7449 28
5960 7446 7450 28
5961 7451 7452 28
5962 7451 7453 28
5963 7451 7454 28
5964 7451 7455 28
5965 7456 7457 28
5966 7456 7458 28
5967 7456 7459 28
5968 7456 7460 28
5969 7461 7462 28
5970 7461 7463 28
5971 7461 7464 28
5972 7461 7465 28
5973 7466 7467 28
5974 7466 7468 28
5975 7466 7469 28
5976 7466 7470 28
5977 7471 7472 28
5978 7471 7473 28
5979 7471 7474 28
5980 7471 7475 28
5981 7476 7477 28
5982 7476 7478 28
5983 7476 7479 28
5984 7476 7480 28
5985 7481 7482 28
5986 7481 7483 28
5987 7481 7484 28
5988 7481 7485 28
5989 7486 7487 28
5990 7486 7488 28
5991 7486 7489 28
5992 7486 7490 28
5993 7491 7492 28
5994 7491 7493 28
5995 7491 7494 28
5996 7491 7495 28
5997 7496 7497 28
5998 7496 7498 28
5999 7496 7499 28
6000 7496 7500 28
6001 7501 7502 28
6002 7501 7503 28
6003 7501 7504 28
6004 7501 7505 28
6005 7506 7507 28
6006 7506 7508 28
6007 7506 7509 28
6008 7506 7510 28
6009 7511 7512 28
6010 7511 7513 28
6011 7511 7514 28
6012 7511 7515 28
6013 7516 7517 28
6014 7516 7518 28
6015 7516 7519 28
6016 7516 7520 28
6017 7521 7522 28
6018 7521 7523 28
6019 7521 7524 28
6020 7521 7525 28
6021 7526 7527 28
6022 7526 7528 28
6023 7526 7529 28
6024 7526 7530 28
6025 7531 7532 28
6026 7531 7533 28
6027 7531 7534 28
6028 7531 7535 28
6029 7536 7537 28
6030 7536 7538 28
6031 7536 7539 28
6032 7536 7540 28
6033 7541 7542 28
6034 7541 7543 28
6035 7541 7544 28
6036 7541 7545 28
6037 7546 7547 28
6038 7546 7548 28
6039 7546 7549 28
6040 7546 7550 28
6041 7551 7552 28
6042 7551 7553 28
6043 7551 7554 28
6044 7551 7555 28
6045 7556 7557 28
6046 7556 7558 28
6047 7556 7559 28
6048 7556 7560 28
6049 7561 7562 28
6050 7561 7563 28
6051 7561 7564 28
6052 7561 7565 28
6053 7566 7567 28
6054 7566 7568 28
6055 7566 7569 28
6056 7566 7570 28
6057 7571 7572 28
6058 7571 7573 28
6059 7571 7574 28
6060 7571 7575 28
6061 7576 7577 28
6062 7576 7578 28
6063 7576 7579 28
6064 7576 7580 28
6065 7581 7582 28
6066 7581 7583 28
6067 7581 7584 28
6068 7581 7585 28
6069 7586 7587 28
6070 7586 7588 28
6071 7586 7589 28
6072 7586 7590 28
6073 7591 7592 28
6074 7591 7593 28
6075 7591 7594 28
6076 7591 7595 28
6077 7596 7597 28
6078 7596 7598 28
6079 7596 7599 28
6080 7596 7600 28
6081 7601 7602 28
6082 7601 7603 28
6083 7601 7604 28
6084 7601 7605 28
6085 7606 7607 28
6086 7606 7608 28
6087 7606 7609 28
6088 7606 7610 28
6089 7611 7612 28
6090 7611 7613 28
6091 7611 7614 28
6092 7611 7615 28
6093 7616 7617 28
6094 7616 7618 28
6095 7616 7619 28
6096 7616 7620 28
6097 7621 7622 28
6098 7621 7623 28
6099 7621 7624 28
6100 7621 7625 28
6101 7626 7627 28
6102 7626 7628 28
6103 7626 7629 28
6104 7626 7630 28
6105 7631 7632 28
6106 7631 7633 28
6107 7631 7634 28
6108 7631 7635 28
6109 7636 7637 28
6110 7636 7638 28
6111 7636 7639 28
6112 7636 7640 28
6113 7641 7642 28
6114 7641 7643 28
6115 7641 7644 28
6116 7641 7645 28
6117 7646 7647 28
6118 7646 7648 28
6119 7646 7649 28
6120 7646 7650 28
6121 7651 7652 28
6122 7651 7653 28
6123 7651 7654 28
6124 7651 7655 28
6125 7656 7657 28
6126 7656 7658 28
6127 7656 7659 28
6128 7656 7660 28
6129 7661 7662 28
6130 7661 7663 28
6131 7661 7664 28
6132 7661 7665 28
6133 7666 7667 28
6134 7666 7668 28
6135 7666 7669 28
6136 7666 7670 28
6137 7671 7672 28
6138 7671 7673 28
6139 7671 7674 28
6140 7671 7675 28
6141 7676 7677 28
6142 7676 7678 28
6143 7676 7679 28
6144 7676 7680 28
6145 7681 7682 28
6146 7681 7683 28
6147 7681 7684 28
6148 7681 7685 28
6149 7686 7687 28
6150 7686 7688 28
6151 7686 7689 28
6152 7686 7690 28
6153 7691 7692 28
6154 7691 7693 28
6155 7691 7694 28
6156 7691 7695 28
6157 7696 7697 28
6158 7696 7698 28
6159 7696 7699 28
6160 7696 7700 28
6161 7701 7702 28
6162 7701 7703 28
6163 7701 7704 28
6164 7701 7705 28
6165 7706 7707 28
6166 7706 7708 28
6167 7706 7709 28
6168 7706 7710 28
6169 7711 7712 28
6170 7711 7713 28
6171 7711 7714 28
6172 7711 7715 28
6173 7716 7717 28
6174 7716 7718 28
6175 7716 7719 28
6176 7716 7720 28
6177 7721 7722 28
6178 7721 7723 28
6179 7721 7724 28
6180 7721 7725 28
6181 7726 7727 28
6182 7726 7728 28
6183 7726 7729 28
6184 7726 7730 28
6185 7731 7732 28
6186 7731 7733 28
6187 7731 7734 28
6188 7731 7735 28
6189 7736 7737 28
6190 7736 7738 28
6191 7736 7739 28
6192 7736 7740 28
6193 7741 7742 28
6194 7741 7743 28
6195 7741 7744 28
6196 7741 7745 28
6197 7746 7747 28
6198 7746 7748 28
6199 7746 7749 28
6200 7746 7750 28
6201 7751 7752 28
6202 7751 7753 28
6203 7751 7754 28
6204 7751 7755 28
6205 7756 7757 28
6206 7756 7758 28
6207 7756 7759 28
6208 7756 7760 28
6209 7761 7762 28
6210 7761 7763 28
6211 7761 7764 28
6212 7761 7765 28
6213 7766 7767 28
6214 7766 7768 28
6215 7766 7769 28
6216 7766 7770 28
6217 7771 7772 28
6218 7771 7773 28
6219 7771 7774 28
6220 7771 7775 28
6221 7776 7777 28
6222 7776 7778 28
6223 7776 7779 28
6224 7776 7780 28
6225 7781 7782 28
6226 7781 7783 28
6227 7781 7784 28
6228 7781 7785 28
6229 7786 7787 28
6230 7786 7788 28
6231 7786 7789 28
6232 7786 7790 28
6233 7791 7792 28
6234 7791 7793 28
6235 7791 7794 28
6236 7791 7795 28
6237 7796 7797 28
6238 7796 7798 28
6239 7796 7799 28
6240 7796 7800 28
6241 7801 7802 28
6242 7801 7803 28
6243 7801 7804 28
6244 7801 7805 28
6245 7806 7807 28
6246 7806 7808 28
6247 7806 7809 28
6248 7806 7810 28
6249 7811 7812 28
6250 7811 7813 28
6251 7811 7814 28
6252 7811 7815 28
6253 7816 7817 28
6254 7816 7818 28
6255 7816 7819 28
6256 7816 7820 28
6257 7821 7822 28
6258 7821 7823 28
6259 7821 7824 28
6260 7821 7825 28
6261 7826 7827 28
6262 7826 7828 28
6263 7826 7829 28
6264 7826 7830 28
6265 7831 7832 28
6266 7831 7833 28
6267 7831 7834 28
6268 7831 7835 28
6269 7836 7837 28
6270 7836 7838 28
6271 7836 7839 28
6272 7836 7840 28
6273 7841 7842 28
6274 7841 7843 28
6275 7841 7844 28
6276 7841 7845 28
6277 7846 7847 28
6278 7846 7848 28
6279 7846 7849 28
6280 7846 7850 28
6281 7851 7852 28
6282 7851 7853 28
6283 7851 7854 28
6284 7851 7855 28
6285 7856 7857 28
6286 7856 7858 28
6287 7856 7859 28
6288 7856 7860 28
6289 7861 7862 28
6290 7861 7863 28
6291 7861 7864 28
6292 7861 7865 28
6293 7866 7867 28
6294 7866 7868 28
6295 7866 7869 28
6296 7866 7870 28
6297 7871 7872 28
6298 7871 7873 28
6299 7871 7874 28
6300 7871 7875 28
6301 7876 7877 28
6302 7876 7878 28
6303 7876 7879 28
6304 7876 7880 28
6305 7881 7882 28
6306 7881 7883 28
6307 7881 7884 28
6308 7881 7885 28
6309 7886 7887 28
6310 7886 7888 28
6311 7886 7889 28
6312 7886 7890 28
6313 7891 7892 28
6314 7891 7893 28
6315 7891 7894 28
6316 7891 7895 28
6317 7896 7897 28
6318 7896 7898 28
6319 7896 7899 28
6320 7896 7900 28
6321 7901 7902 28
6322 7901 7903 28
6323 7901 7904 28
6324 7901 7905 28
6325 7906 7907 28
6326 7906 7908 28
6327 7906 7909 28
6328 7906 7910 28
6329 7911 7912 28
6330 7911 7913 28
6331 7911 7914 28
6332 7911 7915 28
6333 7916 7917 28
6334 7916 7918 28
6335 7916 7919 28
6336 7916 7920 28
6337 7921 7922 28
6338 7921 7923 28
6339 7921 7924 28
6340 7921 7925 28
6341 7926 7927 28
6342 7926 7928 28
6343 7926 7929 28
6344 7926 7930 28
6345 7931 7932 28
6346 7931 7933 28
6347 7931 7934 28
6348 7931 7935 28
6349 7936 7937 28
6350 7936 7938 28
6351 7936 7939 28
6352 7936 7940 28
6353 7941 7942 28
6354 7941 7943 28
6355 7941 7944 28
6356 7941 7945 28
6357 7946 7947 28
6358 7946 7948 28
6359 7946 7949 28
6360 7946 7950 28
6361 7951 7952 28
6362 7951 7953 28
6363 7951 7954 28
6364 7951 7955 28
6365 7956 7957 28
6366 7956 7958 28
6367 7956 7959 28
6368 7956 7960 28
6369 7961 7962 28
6370 7961 7963 28
6371 7961 7964 28
6372 7961 7965 28
6373 7966 7967 28
6374 7966 7968 28
6375 7966 7969 28
6376 7966 7970 28
6377 7971 7972 28
6378 7971 7973 28
6379 7971 7974 28
6380 7971 7975 28
6381 7976 7977 28
6382 7976 7978 28
6383 7976 7979 28
6384 7976 7980 28
6385 7981 7982 28
6386 7981 7983 28
6387 7981 7984 28
6388 7981 7985 28
6389 7986 7987 28
6390 7986 7988 28
6391 7986 7989 28
6392 7986 7990 28
6393 7991 7992 28
6394 7991 7993 28
6395 7991 7994 28
6396 7991 7995 28
6397 7996 7997 28
6398 7996 7998 28
6399 7996 7999 28
6400 7996 8000 28
6401 8001 8002 28
6402 8001 8003 28
6403 8001 8004 28
6404 8001 8005 28
6405 8006 8007 28
6406 8006 8008 28
6407 8006 8009 28
6408 8006 8010 28
6409 8011 8012 28
6410 8011 8013 28
6411 8011 8014 28
6412 8011 8015 28
6413 8016 8017 28
6414 8016 8018 28
6415 8016 8019 28
6416 8016 8020 28
6417 8021 8022 28
6418 8021 8023 28
6419 8021 8024 28
6420 8021 8025 28
6421 8026 8027 28
6422 8026 8028 28
6423 8026 8029 28
6424 8026 8030 28
6425 8031 8032 28
6426 8031 8033 28
6427 8031 8034 28
6428 8031 8035 28
6429 8036 8037 28
6430 8036 8038 28
6431 8036 8039 28
6432 8036 8040 28
6433 8041 8042 28
6434 8041 8043 28
6435 8041 8044 28
6436 8041 8045 28
6437 8046 8047 28
6438 8046 8048 28
6439 8046 8049 28
6440 8046 8050 28
6441 8051 8052 28
6442 8051 8053 28
6443 8051 8054 28
6444 8051 8055 28
6445 8056 8057 28
6446 8056 8058 28
6447 8056 8059 28
6448 8056 8060 28
6449 8061 8062 28
6450 8061 8063 28
6451 8061 8064 28
6452 8061 8065 28
6453 8066 8067 28
6454 8066 8068 28
6455 8066 8069 28
6456 8066 8070 28
6457 8071 8072 28
6458 8071 8073 28
6459 8071 8074 28
6460 8071 8075 28
6461 8076 8077 28
6462 8076 8078 28
6463 8076 8079 28
6464 8076 8080 28
6465 8081 8082 28
6466 8081 8083 28
6467 8081 8084 28
6468 8081 8085 28
6469 8086 8087 28
6470 8086 8088 28
6471 8086 8089 28
6472 8086 8090 28
6473 8091 8092 28
6474 8091 8093 28
6475 8091 8094 28
6476 8091 8095 28
6477 8096 8097 28
6478 8096 8098 28
6479 8096 8099 28
6480 8096 8100 28
6481 8101 8102 28
6482 8101 8103 28
6483 8101 8104 28
6484 8101 8105 28
6485 8106 8107 28
6486 8106 8108 28
6487 8106 8109 28
6488 8106 8110 28
6489 8111 8112 28
6490 8111 8113 28
6491 8111 8114 28
6492 8111 8115 28
6493 8116 8117 28
6494 8116 8118 28
6495 8116 8119 28
6496 8116 8120 28
6497 8121 8122 28
6498 8121 8123 28
6499 8121 8124 28
6500 8121 8125 28
6501 8126 8127 28
6502 8126 8128 28
6503 8126 8129 28
6504 8126 8130 28
6505 8131 8132 28
6506 8131 8133 28
6507 8131 8134 28
6508 8131 8135 28
6509 8136 8137 28
6510 8136 8138 28
6511 8136 8139 28
6512 8136 8140 28
6513 8141 8142 28
6514 8141 8143 28
6515 8141 8144 28
6516 8141 8145 28
6517 8146 8147 28
6518 8146 8148 28
6519 8146 8149 28
6520 8146 8150 28
6521 8151 8152 28
6522 8151 8153 28
6523 8151 8154 28
6524 8151 8155 28
6525 8156 8157 28
6526 8156 8158 28
6527 8156 8159 28
6528 8156 8160 28
6529 8161 8162 28
6530 8161 8163 28
6531 8161 8164 28
6532 8161 8165 28
6533 8166 8167 28
6534 8166 8168 28
6535 8166 8169 28
6536 8166 8170 28
6537 8171 8172 28
6538 8171 8173 28
6539 8171 8174 28
6540 8171 8175 28
6541 8176 8177 28
6542 8176 8178 28
6543 8176 8179 28
6544 8176 8180 28
6545 8181 8182 28
6546 8181 8183 28
6547 8181 8184 28
6548 8181 8185 28
6549 8186 8187 28
6550 8186 8188 28
6551 8186 8189 28
6552 8186 8190 28
6553 8191 8192 28
6554 8191 8193 28
6555 8191 8194 28
6556 8191 8195 28
6557 8196 8197 28
6558 8196 8198 28
6559 8196 8199 28
6560 8196 8200 28
6561 8201 8202 28
6562 8201 8203 28
6563 8201 8204 28
6564 8201 8205 28
6565 8206 8207 28
6566 8206 8208 28
6567 8206 8209 28
6568 8206 8210 28
6569 8211 8212 28
6570 8211 8213 28
6571 8211 8214 28
6572 8211 8215 28
6573 8216 8217 28
6574 8216 8218 28
6575 8216 8219 28
6576 8216 8220 28
6577 8221 8222 28
6578 8221 8223 28
6579 8221 8224 28
6580 8221 8225 28
6581 8226 8227 28
6582 8226 8228 28
6583 8226 8229 28
6584 8226 8230 28
6585 8231 8232 28
6586 8231 8233 28
6587 8231 8234 28
6588 8231 8235 28
6589 8236 8237 28
6590 8236 8238 28
6591 8236 8239 28
6592 8236 8240 28
6593 8241 8242 28
6594 8241 8243 28
6595 8241 8244 28
6596 8241 8245 28
6597 8246 8247 28
6598 8246 8248 28
6599 8246 8249 28
6600 8246 8250 28
6601 8251 8252 28
6602 8251 8253 28
6603 8251 8254 28
6604 8251 8255 28
6605 8256 8257 28
6606 8256 8258 28
6607 8256 8259 28
6608 8256 8260 28
6609 8261 8262 28
6610 8261 8263 28
6611 8261 8264 28
6612 8261 8265 28
6613 8266 8267 28
6614 8266 8268 28
6615 8266 8269 28
6616 8266 8270 28
6617 8271 8272 28
6618 8271 8273 28
6619 8271 8274 28
6620 8271 8275 28
6621 8276 8277 28
6622 8276 8278 28
6623 8276 8279 28
6624 8276 8280 28
6625 8281 8282 28
6626 8281 8283 28
6627 8281 8284 28
6628 8281 8285 28
6629 8286 8287 28
6630 8286 8288 28
6631 8286 8289 28
6632 8286 8290 28
6633 8291 8292 28
6634 8291 8293 28
6635 8291 8294 28
6636 8291 8295 28
6637 8296 8297 28
6638 8296 8298 28
6639 8296 8299 28
6640 8296 8300 28
6641 8301 8302 28
6642 8301 8303 28
6643 8301 8304 28
6644 8301 8305 28
6645 8306 8307 28
6646 8306 8308 28
6647 8306 8309 28
6648 8306 8310 28
6649 8311 8312 28
6650 8311 8313 28
6651 8311 8314 28
6652 8311 8315 28
6653 8316 8317 28
6654 8316 8318 28
6655 8316 8319 28
6656 8316 8320 28
6657 8321 8322 28
6658 8321 8323 28
6659 8321 8324 28
6660 8321 8325 28
6661 8326 8327 28
6662 8326 8328 28
6663 8326 8329 28
6664 8326 8330 28
6665 8331 8332 28
6666 8331 8333 28
6667 8331 8334 28
6668 8331 8335 28
6669 8336 8337 28
6670 8336 8338 28
6671 8336 8339 28
6672 8336 8340 28
6673 8341 8342 28
6674 8341 8343 28
6675 8341 8344 28
6676 8341 8345 28
6677 8346 8347 28
6678 8346 8348 28
6679 8346 8349 28
6680 8346 8350 28
6681 8351 8352 28
6682 8351 8353 28
6683 8351 8354 28
6684 8351 8355 28
6685 8356 8357 28
6686 8356 8358 28
6687 8356 8359 28
6688 8356 8360 28
6689 8361 8362 28
6690 8361 8363 28
6691 8361 8364 28
6692 8361 8365 28
6693 8366 8367 28
6694 8366 8368 28
6695 8366 8369 28
6696 8366 8370 28
6697 8371 8372 28
6698 8371 8373 28
6699 8371 8374 28
6700 8371 8375 28
6701 8376 8377 28
6702 8376 8378 28
6703 8376 8379 28
6704 8376 8380 28
6705 8381 8382 28
6706 8381 8383 28
6707 8381 8384 28
6708 8381 8385 28
6709 8386 8387 28
6710 8386 8388 28
6711 8386 8389 28
6712 8386 8390 28
6713 8391 8392 28
6714 8391 8393 28
6715 8391 8394 28
6716 8391 8395 28
6717 8396 8397 28
6718 8396 8398 28
6719 8396 8399 28
6720 8396 8400 28
6721 8401 8402 28
6722 8401 8403 28
6723 8401 8404 28
6724 8401 8405 28
6725 8406 8407 28
6726 8406 8408 28
6727 8406 8409 28
6728 8406 8410 28
6729 8411 8412 28
6730 8411 8413 28
6731 8411 8414 28
6732 8411 8415 28
6733 8416 8417 28
6734 8416 8418 28
6735 8416 8419 28
6736 8416 8420 28
6737 8421 8422 28
6738 8421 8423 28
6739 8421 8424 28
6740 8421 8425 28
6741 8426 8427 28
6742 8426 8428 28
6743 8426 8429 28
6744 8426 8430 28
6745 8431 8432 28
6746 8431 8433 28
6747 8431 8434 28
6748 8431 8435 28
6749 8436 8437 28
6750 8436 8438 28
6751 8436 8439 28
6752 8436 8440 28
6753 8441 8442 28
6754 8441 8443 28
6755 8441 8444 28
6756 8441 8445 28
6757 8446 8447 28
6758 8446 8448 28
6759 8446 8449 28
6760 8446 8450 28
6761 8451 8452 28
6762 8451 8453 28
6763 8451 8454 28
6764 8451 8455 28
6765 8456 8457 28
6766 8456 8458 28
6767 8456 8459 28
6768 8456 8460 28
6769 8461 8462 28
6770 8461 8463 28
6771 8461 8464 28
6772 8461 8465 28
6773 8466 8467 28
6774 8466 8468 28
6775 8466 8469 28
6776 8466 8470 28
6777 8471 8472 28
6778 8471 8473 28
6779 8471 8474 28
6780 8471 8475 28
6781 8476 8477 28
6782 8476 8478 28
6783 8476 8479 28
6784 8476 8480 28
6785 8481 8482 28
6786 8481 8483 28
6787 8481 8484 28
6788 8481 8485 28
6789 8486 8487 28
6790 8486 8488 28
6791 8486 8489 28
6792 8486 8490 28
6793 8491 8492 28
6794 8491 8493 28
6795 8491 8494 28
6796 8491 8495 28
6797 8496 8497 28
6798 8496 8498 28
6799 8496 8499 28
6800 8496 8500 28
6801 8501 8502 28
6802 8501 8503 28
6803 8501 8504 28
6804 8501 8505 28
6805 8506 8507 28
6806 8506 8508 28
6807 8506 8509 28
6808 8506 8510 28
6809 8511 8512 28
6810 8511 8513 28
6811 8511 8514 28
6812 8511 8515 28
6813 8516 8517 28
6814 8516 8518 28
6815 8516 8519 28
6816 8516 8520 28
6817 8521 8522 28
6818 8521 8523 28
6819 8521 8524 28
6820 8521 8525 28
6821 8526 8527 28
6822 8526 8528 28
6823 8526 8529 28
6824 8526 8530 28
6825 8531 8532 28
6826 8531 8533 28
6827 8531 8534 28
6828 8531 8535 28
6829 8536 8537 28
6830 8536 8538 28
6831 8536 8539 28
6832 8536 8540 28
6833 8541 8542 28
6834 8541 8543 28
6835 8541 8544 28
6836 8541 8545 28
6837 8546 8547 28
6838 8546 8548 28
6839 8546 8549 28
6840 8546 8550 28
6841 8551 8552 28
6842 8551 8553 28
6843 8551 8554 28
6844 8551 8555 28
6845 8556 8557 28
6846 8556 8558 28
6847 8556 8559 28
6848 8556 8560 28
6849 8561 8562 28
6850 8561 8563 28
6851 8561 8564 28
6852 8561 8565 28
6853 8566 8567 28
6854 8566 8568 28
6855 8566 8569 28
6856 8566 8570 28
6857 8571 8572 28
6858 8571 8573 28
6859 8571 8574 28
6860 8571 8575 28
6861 8576 8577 28
6862 8576 8578 28
6863 8576 8579 28
6864 8576 8580 28
6865 8581 8582 28
6866 8581 8583 28
6867 8581 8584 28
6868 8581 8585 28
6869 8586 8587 28
6870 8586 8588 28
6871 8586 8589 28
6872 8586 8590 28
6873 8591 8592 28
6874 8591 8593 28
6875 8591 8594 28
6876 8591 8595 28
6877 8596 8597 28
6878 8596 8598 28
6879 8596 8599 28
6880 8596 8600 28
6881 8601 8602 28
6882 8601 8603 28
6883 8601 8604 28
6884 8601 8605 28
6885 8606 8607 28
6886 8606 8608 28
6887 8606 8609 28
6888 8606 8610 28
6889 8611 8612 28
6890 8611 8613 28
6891 8611 8614 28
6892 8611 8615 28
6893 8616 8617 28
6894 8616 8618 28
6895 8616 8619 28
6896 8616 8620 28
6897 8621 8622 28
6898 8621 8623 28
6899 8621 8624 28
6900 8621 8625 28
6901 8626 8627 28
6902 8626 8628 28
6903 8626 8629 28
6904 8626 8630 28
6905 8631 8632 28
6906 8631 8633 28
6907 8631 8634 28
6908 8631 8635 28
6909 8636 8637 28
6910 8636 8638 28
6911 8636 8639 28
6912 8636 8640 28
6913 8641 8642 28
6914 8641 8643 28
6915 8641 8644 28
6916 8641 8645 28
6917 8646 8647 28
6918 8646 8648 28
6919 8646 8649 28
6920 8646 8650 28
6921 8651 8652 28
6922 8651 8653 28
6923 8651 8654 28
6924 8651 8655 28
6925 8656 8657 28
6926 8656 8658 28
6927 8656 8659 28
6928 8656 8660 28
6929 8661 8662 28
6930 8661 8663 28
6931 8661 8664 28
6932 8661 8665 28
6933 8666 8667 28
6934 8666 8668 28
6935 8666 8669 28
6936 8666 8670 28
6937 8671 8672 28
6938 8671 8673 28
6939 8671 8674 28
6940 8671 8675 28
6941 8676 8677 28
6942 8676 8678 28
6943 8676 8679 28
6944 8676 8680 28
6945 8681 8682 28
6946 8681 8683 28
6947 8681 8684 28
6948 8681 8685 28
6949 8686 8687 28
6950 8686 8688 28
6951 8686 8689 28
6952 8686 8690 28
6953 8691 8692 28
6954 8691 8693 28
6955 8691 8694 28
6956 8691 8695 28
6957 8696 8697 28
6958 8696 8698 28
6959 8696 8699 28
6960 8696 8700 28
6961 8701 8702 28
6962 8701 8703 28
6963 8701 8704 28
6964 8701 8705 28
6965 8706 8707 28
6966 8706 8708 28
6967 8706 8709 28
6968 8706 8710 28
6969 8711 8712 28
6970 8711 8713 28
6971 8711 8714 28
6972 8711 8715 28
6973 8716 8717 28
6974 8716 8718 28
6975 8716 8719 28
6976 8716 8720 28
6977 8721 8722 28
6978 8721 8723 28
6979 8721 8724 28
6980 8721 8725 28
6981 8726 8727 28
6982 8726 8728 28
6983 8726 8729 28
6984 8726 8730 28
6985 8731 8732 28
6986 8731 8733 28
6987 8731 8734 28
6988 8731 8735 28
6989 8736 8737 28
6990 8736 8738 28
6991 8736 8739 28
6992 8736 8740 28
6993 8741 8742 28
6994 8741 8743 28
6995 8741 8744 28
6996 8741 8745 28
6997 8746 8747 28
6998 8746 8748 28
6999 8746 8749 28
7000 8746 8750 28
7001 8751 8752 28
7002 8751 8753 28
7003 8751 8754 28
7004 8751 8755 28
7005 8756 8757 28
7006 8756 8758 28
7007 8756 8759 28
7008 8756 8760 28
7009 8761 8762 28
7010 8761 8763 28
7011 8761 8764 28
7012 8761 8765 28
7013 8766 8767 28
7014 8766 8768 28
7015 8766 8769 28
7016 8766 8770 28
7017 8771 8772 28
7018 8771 8773 28
7019 8771 8774 28
7020 8771 8775 28
7021 8776 8777 28
7022 8776 8778 28
7023 8776 8779 28
7024 8776 8780 28
7025 8781 8782 28
7026 8781 8783 28
7027 8781 8784 28
7028 8781 8785 28
7029 8786 8787 28
7030 8786 8788 28
7031 8786 8789 28
7032 8786 8790 28
7033 8791 8792 28
7034 8791 8793 28
7035 8791 8794 28
7036 8791 8795 28
7037 8796 8797 28
7038 8796 8798 28
7039 8796 8799 28
7040 8796 8800 28
7041 8801 8802 28
7042 8801 8803 28
7043 8801 8804 28
7044 8801 8805 28
7045 8806 8807 28
7046 8806 8808 28
7047 8806 8809 28
7048 8806 8810 28
7049 8811 8812 28
7050 8811 8813 28
7051 8811 8814 28
7052 8811 8815 28
7053 8816 8817 28
7054 8816 8818 28
7055 8816 8819 28
7056 8816 8820 28
7057 8821 8822 28
7058 8821 8823 28
7059 8821 8824 28
7060 8821 8825 28
7061 8826 8827 28
7062 8826 8828 28
7063 8826 8829 28
7064 8826 8830 28
7065 8831 8832 28
7066 8831 8833 28
7067 8831 8834 28
7068 8831 8835 28
7069 8836 8837 28
7070 8836 8838 28
7071 8836 8839 28
7072 8836 8840 28
7073 8841 8842 28
7074 8841 8843 28
7075 8841 8844 28
7076 8841 8845 28
7077 8846 8847 28
7078 8846 8848 28
7079 8846 8849 28
7080 8846 8850 28
7081 8851 8852 28
7082 8851 8853 28
7083 8851 8854 28
7084 8851 8855 28
7085 8856 8857 28
7086 8856 8858 28
7087 8856 8859 28
7088 8856 8860 28
7089 8861 8862 28
7090 8861 8863 28
7091 8861 8864 28
7092 8861 8865 28
7093 8866 8867 28
7094 8866 8868 28
7095 8866 8869 28
7096 8866 8870 28
7097 8871 8872 28
7098 8871 8873 28
7099 8871 8874 28
7100 8871 8875 28
7101 8876 8877 28
7102 8876 8878 28
7103 8876 8879 28
7104 8876 8880 28
7105 8881 8882 28
7106 8881 8883 28
7107 8881 8884 28
7108 8881 8885 28
7109 8886 8887 28
7110 8886 8888 28
7111 8886 8889 28
7112 8886 8890 28
7113 8891 8892 28
7114 8891 8893 28
7115 8891 8894 28
7116 8891 8895 28
7117 8896 8897 28
7118 8896 8898 28
7119 8896 8899 28
7120 8896 8900 28
7121 8901 8902 28
7122 8901 8903 28
7123 8901 8904 28
7124 8901 8905 28
7125 8906 8907 28
7126 8906 8908 28
7127 8906 8909 28
7128 8906 8910 28
7129 8911 8912 28
7130 8911 8913 28
7131 8911 8914 28
7132 8911 8915 28
7133 8916 8917 28
7134 8916 8918 28
7135 8916 8919 28
7136 8916 8920 28
7137 8921 8922 28
7138 8921 8923 28
7139 8921 8924 28
7140 8921 8925 28
7141 8926 8927 28
7142 8926 8928 28
7143 8926 8929 28
7144 8926 8930 28
7145 8931 8932 28
7146 8931 8933 28
7147 8931 8934 28
7148 8931 8935 28
7149 8936 8937 28
7150 8936 8938 28
7151 8936 8939 28
7152 8936 8940 28
7153 8941 8942 28
7154 8941 8943 28
7155 8941 8944 28
7156 8941 8945 28
7157 8946 8947 28
7158 8946 8948 28
7159 8946 8949 28
7160 8946 8950 28
7161 8951 8952 28
7162 8951 8953 28
7163 8951 8954 28
7164 8951 8955 28
7165 8956 8957 28
7166 8956 8958 28
7167 8956 8959 28
7168 8956 8960 28
7169 8961 8962 28
7170 8961 8963 28
7171 8961 8964 28
7172 8961 8965 28
7173 8966 8967 28
7174 8966 8968 28
7175 8966 8969 28
7176 8966 8970 28
7177 8971 8972 28
7178 8971 8973 28
7179 8971 8974 28
7180 8971 8975 28
7181 8976 8977 28
7182 8976 8978 28
7183 8976 8979 28
7184 8976 8980 28
7185 8981 8982 28
7186 8981 8983 28
7187 8981 8984 28
7188 8981 8985 28
7189 8986 8987 28
7190 8986 8988 28
7191 8986 8989 28
7192 8986 8990 28
7193 8991 8992 28
7194 8991 8993 28
7195 8991 8994 28
7196 8991 8995 28
7197 8996 8997 28
7198 8996 8998 28
7199 8996 8999 28
7200 8996 9000 28
7201 9001 9002 28
7202 9001 9003 28
7203 9001 9004 28
7204 9001 9005 28
7205 9006 9007 28
7206 9006 9008 28
7207 9006 9009 28
7208 9006 9010 28
7209 9011 9012 28
7210 9011 9013 28
7211 9011 9014 28
7212 9011 9015 28
7213 9016 9017 28
7214 9016 9018 28
7215 9016 9019 28
7216 9016 9020 28
7217 9021 9022 28
7218 9021 9023 28
7219 9021 9024 28
7220 9021 9025 28
7221 9026 9027 28
7222 9026 9028 28
7223 9026 9029 28
7224 9026 9030 28
7225 9031 9032 28
7226 9031 9033 28
7227 9031 9034 28
7228 9031 9035 28
7229 9036 9037 28
7230 9036 9038 28
7231 9036 9039 28
7232 9036 9040 28
7233 9041 9042 28
7234 9041 9043 28
7235 9041 9044 28
7236 9041 9045 28
7237 9046 9047 28
7238 9046 9048 28
7239 9046 9049 28
7240 9046 9050 28
7241 9051 9052 28
7242 9051 9053 28
7243 9051 9054 28
7244 9051 9055 28
7245 9056 9057 28
7246 9056 9058 28
7247 9056 9059 28
7248 9056 9060 28
7249 9061 9062 28
7250 9061 9063 28
7251 9061 9064 28
7252 9061 9065 28
7253 9066 9067 28
7254 9066 9068 28
7255 9066 9069 28
7256 9066 9070 28
7257 9071 9072 28
7258 9071 9073 28
7259 9071 9074 28
7260 9071 9075 28
7261 9076 9077 28
7262 9076 9078 28
7263 9076 9079 28
7264 9076 9080 28
7265 9081 9082 28
7266 9081 9083 28
7267 9081 9084 28
7268 9081 9085 28
7269 9086 9087 28
7270 9086 9088 28
7271 9086 9089 28
7272 9086 9090 28
7273 9091 9092 28
7274 9091 9093 28
7275 9091 9094 28
7276 9091 9095 28
7277 9096 9097 28
7278 9096 9098 28
7279 9096 9099 28
7280 9096 9100 28
7281 9101 9102 28
7282 9101 9103 28
7283 9101 9104 28
7284 9101 9105 28
7285 9106 9107 28
7286 9106 9108 28
7287 9106 9109 28
7288 9106 9110 28
7289 9111 9112 28
7290 9111 9113 28
7291 9111 9114 28
7292 9111 9115 28
7293 9116 9117 28
7294 9116 9118 28
7295 9116 9119 28
7296 9116 9120 28
7297 9121 9122 28
7298 9121 9123 28
7299 9121 9124 28
7300 9121 9125 28
7301 9126 9127 28
7302 9126 9128 28
7303 9126 9129 28
7304 9126 9130 28
7305 9131 9132 28
7306 9131 9133 28
7307 9131 9134 28
7308 9131 9135 28
7309 9136 9137 28
7310 9136 9138 28
7311 9136 9139 28
7312 9136 9140 28
7313 9141 9142 28
7314 9141 9143 28
7315 9141 9144 28
7316 9141 9145 28
7317 9146 9147 28
7318 9146 9148 28
7319 9146 9149 28
7320 9146 9150 28
7321 9151 9152 28
7322 9151 9153 28
7323 9151 9154 28
7324 9151 9155 28
7325 9156 9157 28
7326 9156 9158 28
7327 9156 9159 28
7328 9156 9160 28
7329 9161 9162 28
7330 9161 9163 28
7331 9161 9164 28
7332 9161 9165 28
7333 9166 9167 28
7334 9166 9168 28
7335 9166 9169 28
7336 9166 9170 28
7337 9171 9172 28
7338 9171 9173 28
7339 9171 9174 28
7340 9171 9175 28
7341 9176 9177 28
7342 9176 9178 28
7343 9176 9179 28
7344 9176 9180 28
7345 9181 9182 28
7346 9181 9183 28
7347 9181 9184 28
7348 9181 9185 28
7349 9186 9187 28
7350 9186 9188 28
7351 9186 9189 28
7352 9186 9190 28
7353 9191 9192 28
7354 9191 9193 28
7355 9191 9194 28
7356 9191 9195 28
7357 9196 9197 28
7358 9196 9198 28
7359 9196 9199 28
7360 9196 9200 28
7361 9201 9202 28
7362 9201 9203 28
7363 9201 9204 28
7364 9201 9205 28
7365 9206 9207 28
7366 9206 9208 28
7367 9206 9209 28
7368 9206 9210 28
7369 9211 9212 28
7370 9211 9213 28
7371 9211 9214 28
7372 9211 9215 28
7373 9216 9217 28
7374 9216 9218 28
7375 9216 9219 28
7376 9216 9220 28
7377 9221 9222 28
7378 9221 9223 28
7379 9221 9224 28
7380 9221 9225 28
7381 9226 9227 28
7382 9226 9228 28
7383 9226 9229 28
7384 9226 9230 28
7385 9231 9232 28
7386 9231 9233 28
7387 9231 9234 28
7388 9231 9235 28
7389 9236 9237 28
7390 9236 9238 28
7391 9236 9239 28
7392 9236 9240 28
7393 9241 9242 28
7394 9241 9243 28
7395 9241 9244 28
7396 9241 9245 28
7397 9246 9247 28
7398 9246 9248 28
7399 9246 9249 28
7400 9246 9250 28
7401 9251 9252 28
7402 9251 9253 28
7403 9251 9254 28
7404 9251 9255 28
7405 9256 9257 28
7406 9256 9258 28
7407 9256 9259 28
7408 9256 9260 28
7409 9261 9262 28
7410 9261 9263 28
7411 9261 9264 28
7412 9261 9265 28
7413 9266 9267 28
7414 9266 9268 28
7415 9266 9269 28
7416 9266 9270 28
7417 9271 9272 28
7418 9271 9273 28
7419 9271 9274 28
7420 9271 9275 28
7421 9276 9277 28
7422 9276 9278 28
7423 9276 9279 28
7424 9276 9280 28
7425 9281 9282 28
7426 9281 9283 28
7427 9281 9284 28
7428 9281 9285 28
7429 9286 9287 28
7430 9286 9288 28
7431 9286 9289 28
7432 9286 9290 28
7433 9291 9292 28
7434 9291 9293 28
7435 9291 9294 28
7436 9291 9295 28
7437 9296 9297 28
7438 9296 9298 28
7439 9296 9299 28
7440 9296 9300 28
7441 9301 9302 28
7442 9301 9303 28
7443 9301 9304 28
7444 9301 9305 28
7445 9306 9307 28
7446 9306 9308 28
7447 9306 9309 28
7448 9306 9310 28
7449 9311 9312 28
7450 9311 9313 28
7451 9311 9314 28
7452 9311 9315 28
7453 9316 9317 28
7454 9316 9318 28
7455 9316 9319 28
7456 9316 9320 28
7457 9321 9322 28
7458 9321 9323 28
7459 9321 9324 28
7460 9321 9325 28
7461 9326 9327 28
7462 9326 9328 28
7463 9326 9329 28
7464 9326 9330 28
7465 9331 9332 28
7466 9331 9333 28
7467 9331 9334 28
7468 9331 9335 28
7469 9336 9337 28
7470 9336 9338 28
7471 9336 9339 28
7472 9336 9340 28
7473 9341 9342 28
7474 9341 9343 28
7475 9341 9344 28
7476 9341 9345 28
7477 9346 9347 28
7478 9346 9348 28
7479 9346 9349 28
7480 9346 9350 28
7481 9351 9352 28
7482 9351 9353 28
7483 9351 9354 28
7484 9351 9355 28
7485 9356 9357 28
7486 9356 9358 28
7487 9356 9359 28
7488 9356 9360 28
7489 9361 9362 28
7490 9361 9363 28
7491 9361 9364 28
7492 9361 9365 28
7493 9366 9367 28
7494 9366 9368 28
7495 9366 9369 28
7496 9366 9370 28
7497 9371 9372 28
7498 9371 9373 28
7499 9371 9374 28
7500 9371 9375 28
7501 9376 9377 28
7502 9376 9378 28
7503 9376 9379 28
7504 9376 9380 28
7505 9381 9382 28
7506 9381 9383 28
7507 9381 9384 28
7508 9381 9385 28
7509 9386 9387 28
7510 9386 9388 28
7511 9386 9389 28
7512 9386 9390 28
7513 9391 9392 28
7514 9391 9393 28
7515 9391 9394 28
7516 9391 9395 28
7517 9396 9397 28
7518 9396 9398 28
7519 9396 9399 28
7520 9396 9400 28
7521 9401 9402 28
7522 9401 9403 28
7523 9401 9404 28
7524 9401 9405 28
7525 9406 9407 28
7526 9406 9408 28
7527 9406 9409 28
7528 9406 9410 28
7529 9411 9412 28
7530 9411 9413 28
7531 9411 9414 28
7532 9411 9415 28
7533 9416 9417 28
7534 9416 9418 28
7535 9416 9419 28
7536 9416 9420 28
7537 9421 9422 28
7538 9421 9423 28
7539 9421 9424 28
7540 9421 9425 28
7541 9426 9427 28
7542 9426 9428 28
7543 9426 9429 28
7544 9426 9430 28
7545 9431 9432 28
7546 9431 9433 28
7547 9431 9434 28
7548 9431 9435 28
7549 9436 9437 28
7550 9436 9438 28
7551 9436 9439 28
7552 9436 9440 28
7553 9441 9442 28
7554 9441 9443 28
7555 9441 9444 28
7556 9441 9445 28
7557 9446 9447 28
7558 9446 9448 28
7559 9446 9449 28
7560 9446 9450 28
7561 9451 9452 28
7562 9451 9453 28
7563 9451 9454 28
7564 9451 9455 28
7565 9456 9457 28
7566 9456 9458 28
7567 9456 9459 28
7568 9456 9460 28
7569 9461 9462 28
7570 9461 9463 28
7571 9461 9464 28
7572 9461 9465 28
7573 9466 9467 28
7574 9466 9468 28
7575 9466 9469 28
7576 9466 9470 28
7577 9471 9472 28
7578 9471 9473 28
7579 9471 9474 28
7580 9471 9475 28
7581 9476 9477 28
7582 9476 9478 28
7583 9476 9479 28
7584 9476 9480 28
7585 9481 9482 28
7586 9481 9483 28
7587 9481 9484 28
7588 9481 9485 28
7589 9486 9487 28
7590 9486 9488 28
7591 9486 9489 28
7592 9486 9490 28
7593 9491 9492 28
7594 9491 9493 28
7595 9491 9494 28
7596 9491 9495 28
7597 9496 9497 28
7598 9496 9498 28
7599 9496 9499 28
7600 9496 9500 28
7601 9501 9502 28
7602 9501 9503 28
7603 9501 9504 28
7604 9501 9505 28
7605 9506 9507 28
7606 9506 9508 28
7607 9506 9509 28
7608 9506 9510 28
7609 9511 9512 28
7610 9511 9513 28
7611 9511 9514 28
7612 9511 9515 28
7613 9516 9517 28
7614 9516 9518 28
7615 9516 9519 28
7616 9516 9520 28
7617 9521 9522 28
7618 9521 9523 28
7619 9521 9524 28
7620 9521 9525 28
7621 9526 9527 28
7622 9526 9528 28
7623 9526 9529 28
7624 9526 9530 28
7625 9531 9532 28
7626 9531 9533 28
7627 9531 9534 28
7628 9531 9535 28
7629 9536 9537 28
7630 9536 9538 28
7631 9536 9539 28
7632 9536 9540 28
7633 9541 9542 28
7634 9541 9543 28
7635 9541 9544 28
7636 9541 9545 28
7637 9546 9547 28
7638 9546 9548 28
7639 9546 9549 28
7640 9546 9550 28
7641 9551 9552 28
7642 9551 9553 28
7643 9551 9554 28
7644 9551 9555 28
7645 9556 9557 28
7646 9556 9558 28
7647 9556 9559 28
7648 9556 9560 28
7649 9561 9562 28
7650 9561 9563 28
7651 9561 9564 28
7652 9561 9565 28
7653 9566 9567 28
7654 9566 9568 28
7655 9566 9569 28
7656 9566 9570 28
7657 9571 9572 28
7658 9571 9573 28
7659 9571 9574 28
7660 9571 9575 28
7661 9576 9577 28
7662 9576 9578 28
7663 9576 9579 28
7664 9576 9580 28
7665 9581 9582 28
7666 9581 9583 28
7667 9581 9584 28
7668 9581 9585 28
7669 9586 9587 28
7670 9586 9588 28
7671 9586 9589 28
7672 9586 9590 28
7673 9591 9592 28
7674 9591 9593 28
7675 9591 9594 28
7676 9591 9595 28
7677 9596 9597 28
7678 9596 9598 28
7679 9596 9599 28
7680 9596 9600 28
7681 9601 9602 28
7682 9601 9603 28
7683 9601 9604 28
7684 9601 9605 28
7685 9606 9607 28
7686 9606 9608 28
7687 9606 9609 28
7688 9606 9610 28
7689 9611 9612 28
7690 9611 9613 28
7691 9611 9614 28
7692 9611 9615 28
7693 9616 9617 28
7694 9616 9618 28
7695 9616 9619 28
7696 9616 9620 28
7697 9621 9622 28
7698 9621 9623 28
7699 9621 9624 28
7700 9621 9625 28
7701 9626 9627 28
7702 9626 9628 28
7703 9626 9629 28
7704 9626 9630 28
7705 9631 9632 28
7706 9631 9633 28
7707 9631 9634 28
7708 9631 9635 28
7709 9636 9637 28
7710 9636 9638 28
7711 9636 9639 28
7712 9636 9640 28
7713 9641 9642 28
7714 9641 9643 28
7715 9641 9644 28
7716 9641 9645 28
7717 9646 9647 28
7718 9646 9648 28
7719 9646 9649 28
7720 9646 9650 28
7721 9651 9652 28
7722 9651 9653 28
7723 9651 9654 28
7724 9651 9655 28
7725 9656 9657 28
7726 9656 9658 28
7727 9656 9659 28
7728 9656 9660 28
7729 9661 9662 28
7730 9661 9663 28
7731 9661 9664 28
7732 9661 9665 28
7733 9666 9667 28
7734 9666 9668 28
7735 9666 9669 28
7736 9666 9670 28
7737 9671 9672 28
7738 9671 9673 28
7739 9671 9674 28
7740 9671 9675 28
7741 9676 9677 28
7742 9676 9678 28
7743 9676 9679 28
7744 9676 9680 28
7745 9681 9682 28
7746 9681 9683 28
7747 9681 9684 28
7748 9681 9685 28
7749 9686 9687 28
7750 9686 9688 28
7751 9686 9689 28
7752 9686 9690 28
7753 9691 9692 28
7754 9691 9693 28
7755 9691 9694 28
7756 9691 9695 28
7757 9696 9697 28
7758 9696 9698 28
7759 9696 9699 28
7760 9696 9700 28
7761 9701 9702 28
7762 9701 9703 28
7763 9701 9704 28
7764 9701 9705 28
7765 9706 9707 28
7766 9706 9708 28
7767 9706 9709 28
7768 9706 9710 28
7769 9711 9712 28
7770 9711 9713 28
7771 9711 9714 28
7772 9711 9715 28
7773 9716 9717 28
7774 9716 9718 28
7775 9716 9719 28
7776 9716 9720 28
7777 9721 9722 28
7778 9721 9723 28
7779 9721 9724 28
7780 9721 9725 28
7781 9726 9727 28
7782 9726 9728 28
7783 9726 9729 28
7784 9726 9730 28
7785 9731 9732 28
7786 9731 9733 28
7787 9731 9734 28
7788 9731 9735 28
7789 9736 9737 28
7790 9736 9738 28
7791 9736 9739 28
7792 9736 9740 28
7793 9741 9742 28
7794 9741 9743 28
7795 9741 9744 28
7796 9741 9745 28
7797 9746 9747 28
7798 9746 9748 28
7799 9746 9749 28
7800 9746 9750 28
7801 9751 9752 28
7802 9751 9753 28
7803 9751 9754 28
7804 9751 9755 28
7805 9756 9757 28
7806 9756 9758 28
7807 9756 9759 28
7808 9756 9760 28
7809 9761 9762 28
7810 9761 9763 28
7811 9761 9764 28
7812 9761 9765 28
7813 9766 9767 28
7814 9766 9768 28
7815 9766 9769 28
7816 9766 9770 28
7817 9771 9772 28
7818 9771 9773 28
7819 9771 9774 28
7820 9771 9775 28
7821 9776 9777 28
7822 9776 9778 28
7823 9776 9779 28
7824 9776 9780 28
7825 9781 9782 28
7826 9781 9783 28
7827 9781 9784 28
7828 9781 9785 28
7829 9786 9787 28
7830 9786 9788 28
7831 9786 9789 28
7832 9786 9790 28
7833 9791 9792 28
7834 9791 9793 28
7835 9791 9794 28
7836 9791 9795 28
7837 9796 9797 28
7838 9796 9798 28
7839 9796 9799 28
7840 9796 9800 28
7841 9801 9802 28
7842 9801 9803 28
7843 9801 9804 28
7844 9801 9805 28
7845 9806 9807 28
7846 9806 9808 28
7847 9806 9809 28
7848 9806 9810 28
7849 9811 9812 28
7850 9811 9813 28
7851 9811 9814 28
7852 9811 9815 28
7853 9816 9817 28
7854 9816 9818 28
7855 9816 9819 28
7856 9816 9820 28
7857 9821 9822 28
7858 9821 9823 28
7859 9821 9824 28
7860 9821 9825 28
7861 9826 9827 28
7862 9826 9828 28
7863 9826 9829 28
7864 9826 9830 28
7865 9831 9832 28
7866 9831 9833 28
7867 9831 9834 28
7868 9831 9835 28
7869 9836 9837 28
7870 9836 9838 28
7871 9836 9839 28
7872 9836 9840 28
7873 9841 9842 28
7874 9841 9843 28
7875 9841 9844 28
7876 9841 9845 28
7877 9846 9847 28
7878 9846 9848 28
7879 9846 9849 28
7880 9846 9850 28
7881 9851 9852 28
7882 9851 9853 28
7883 9851 9854 28
7884 9851 9855 28
7885 9856 9857 28
7886 9856 9858 28
7887 9856 9859 28
7888 9856 9860 28
7889 9861 9862 28
7890 9861 9863 28
7891 9861 9864 28
7892 9861 9865 28
7893 9866 9867 28
7894 9866 9868 28
7895 9866 9869 28
7896 9866 9870 28
7897 9871 9872 28
7898 9871 9873 28
7899 9871 9874 28
7900 9871 9875 28
7901 9876 9877 28
7902 9876 9878 28
7903 9876 9879 28
7904 9876 9880 28
7905 9881 9882 28
7906 9881 9883 28
7907 9881 9884 28
7908 9881 9885 28
7909 9886 9887 28
7910 9886 9888 28
7911 9886 9889 28
7912 9886 9890 28
7913 9891 9892 28
7914 9891 9893 28
7915 9891 9894 28
7916 9891 9895 28
7917 9896 9897 28
7918 9896 9898 28
7919 9896 9899 28
7920 9896 9900 28
7921 9901 9902 28
7922 9901 9903 28
7923 9901 9904 28
7924 9901 9905 28
7925 9906 9907 28
7926 9906 9908 28
7927 9906 9909 28
7928 9906 9910 28
7929 9911 9912 28
7930 9911 9913 28
7931 9911 9914 28
7932 9911 9915 28
7933 9916 9917 28
7934 9916 9918 28
7935 9916 9919 28
7936 9916 9920 28
7937 9921 9922 28
7938 9921 9923 28
7939 9921 9924 28
7940 9921 9925 28
7941 9926 9927 28
7942 9926 9928 28
7943 9926 9929 28
7944 9926 9930 28
7945 9931 9932 28
7946 9931 9933 28
7947 9931 9934 28
7948 9931 9935 28
7949 9936 9937 28
7950 9936 9938 28
7951 9936 9939 28
7952 9936 9940 28
7953 9941 9942 28
7954 9941 9943 28
7955 9941 9944 28
7956 9941 9945 28
7957 9946 9947 28
7958 9946 9948 28
7959 9946 9949 28
7960 9946 9950 28
7961 9951 9952 28
7962 9951 9953 28
7963 9951 9954 28
7964 9951 9955 28
7965 9956 9957 28
7966 9956 9958 28
7967 9956 9959 28
7968 9956 9960 28
7969 9961 9962 28
7970 9961 9963 28
7971 9961 9964 28
7972 9961 9965 28
7973 9966 9967 28
7974 9966 9968 28
7975 9966 9969 28
7976 9966 9970 28
7977 9971 9972 28
7978 9971 9973 28
7979 9971 9974 28
7980 9971 9975 28
7981 9976 9977 28
7982 9976 9978 28
7983 9976 9979 28
7984 9976 9980 28
7985 9981 9982 28
7986 9981 9983 28
7987 9981 9984 28
7988 9981 9985 28
7989 9986 9987 28
7990 9986 9988 28
7991 9986 9989 28
7992 9986 9990 28
7993 9991 9992 28
7994 9991 9993 28
7995 9991 9994 28
7996 9991 9995 28
7997 9996 9997 28
7998 9996 9998 28
7999 9996 9999 28
8000 9996 10000 28
8001 10001 10002 28
8002 10001 10003 28
8003 10001 10004 28
8004 10001 10005 28
8005 10006 10007 28
8006 10006 10008 28
8007 10006 10009 28
8008 10006 10010 28
8009 10011 10012 28
8010 10011 10013 28
8011 10011 10014 28
8012 10011 10015 28
8013 10016 10017 28
8014 10016 10018 28
8015 10016 10019 28
8016 10016 10020 28
8017 10021 10022 28
8018 10021 10023 28
8019 10021 10024 28
8020 10021 10025 28
8021 10026 10027 28
8022 10026 10028 28
8023 10026 10029 28
8024 10026 10030 28
8025 10031 10032 28
8026 10031 10033 28
8027 10031 10034 28
8028 10031 10035 28
8029 10036 10037 28
8030 10036 10038 28
8031 10036 10039 28
8032 10036 10040 28
8033 10041 10042 28
8034 10041 10043 28
8035 10041 10044 28
8036 10041 10045 28
8037 10046 10047 28
8038 10046 10048 28
8039 10046 10049 28
8040 10046 10050 28
8041 10051 10052 28
8042 10051 10053 28
8043 10051 10054 28
8044 10051 10055 28
8045 10056 10057 28
8046 10056 10058 28
8047 10056 10059 28
8048 10056 10060 28
8049 10061 10062 28
8050 10061 10063 28
8051 10061 10064 28
8052 10061 10065 28
8053 10066 10067 28
8054 10066 10068 28
8055 10066 10069 28
8056 10066 10070 28
8057 10071 10072 28
8058 10071 10073 28
8059 10071 10074 28
8060 10071 10075 28
8061 10076 10077 28
8062 10076 10078 28
8063 10076 10079 28
8064 10076 10080 28
8065 10081 10082 28
8066 10081 10083 28
8067 10081 10084 28
8068 10081 10085 28
8069 10086 10087 28
8070 10086 10088 28
8071 10086 10089 28
8072 10086 10090 28
8073 10091 10092 28
8074 10091 10093 28
8075 10091 10094 28
8076 10091 10095 28
8077 10096 10097 28
8078 10096 10098 28
8079 10096 10099 28
8080 10096 10100 28
8081 10101 10102 28
8082 10101 10103 28
8083 10101 10104 28
8084 10101 10105 28
8085 10106 10107 28
8086 10106 10108 28
8087 10106 10109 28
8088 10106 10110 28
8089 10111 10112 28
8090 10111 10113 28
8091 10111 10114 28
8092 10111 10115 28
8093 10116 10117 28
8094 10116 10118 28
8095 10116 10119 28
8096 10116 10120 28
8097 10121 10122 28
8098 10121 10123 28
8099 10121 10124 28
8100 10121 10125 28
8101 10126 10127 28
8102 10126 10128 28
8103 10126 10129 28
8104 10126 10130 28
8105 10131 10132 28
8106 10131 10133 28
8107 10131 10134 28
8108 10131 10135 28
8109 10136 10137 28
8110 10136 10138 28
8111 10136 10139 28
8112 10136 10140 28
8113 10141 10142 28
8114 10141 10143 28
8115 10141 10144 28
8116 10141 10145 28
8117 10146 10147 28
8118 10146 10148 28
8119 10146 10149 28
8120 10146 10150 28
8121 10151 10152 28
8122 10151 10153 28
8123 10151 10154 28
8124 10151 10155 28
8125 10156 10157 28
8126 10156 10158 28
8127 10156 10159 28
8128 10156 10160 28
8129 10161 10162 28
8130 10161 10163 28
8131 10161 10164 28
8132 10161 10165 28
8133 10166 10167 28
8134 10166 10168 28
8135 10166 10169 28
8136 10166 10170 28
8137 10171 10172 28
8138 10171 10173 28
8139 10171 10174 28
8140 10171 10175 28
8141 10176 10177 28
8142 10176 10178 28
8143 10176 10179 28
8144 10176 10180 28
8145 10181 10182 28
8146 10181 10183 28
8147 10181 10184 28
8148 10181 10185 28
8149 10186 10187 28
8150 10186 10188 28
8151 10186 10189 28
8152 10186 10190 28
8153 10191 10192 28
8154 10191 10193 28
8155 10191 10194 28
8156 10191 10195 28
8157 10196 10197 28
8158 10196 10198 28
8159 10196 10199 28
8160 10196 10200 28
8161 10201 10202 28
8162 10201 10203 28
8163 10201 10204 28
8164 10201 10205 28
8165 10206 10207 28
8166 10206 10208 28
8167 10206 10209 28
8168 10206 10210 28
8169 10211 10212 28
8170 10211 10213 28
8171 10211 10214 28
8172 10211 10215 28
8173 10216 10217 28
8174 10216 10218 28
8175 10216 10219 28
8176 10216 10220 28
8177 10221 10222 28
8178 10221 10223 28
8179 10221 10224 28
8180 10221 10225 28
8181 10226 10227 28
8182 10226 10228 28
8183 10226 10229 28
8184 10226 10230 28
8185 10231 10232 28
8186 10231 10233 28
8187 10231 10234 28
8188 10231 10235 28
8189 10236 10237 28
8190 10236 10238 28
8191 10236 10239 28
8192 10236 10240 28
8193 10241 10242 28
8194 10241 10243 28
8195 10241 10244 28
8196 10241 10245 28
8197 10246 10247 28
8198 10246 10248 28
8199 10246 10249 28
8200 10246 10250 28
8201 10251 10252 28
8202 10251 10253 28
8203 10251 10254 28
8204 10251 10255 28
8205 10256 10257 28
8206 10256 10258 28
8207 10256 10259 28
8208 10256 10260 28
8209 10261 10262 28
8210 10261 10263 28
8211 10261 10264 28
8212 10261 10265 28
8213 10266 10267 28
8214 10266 10268 28
8215 10266 10269 28
8216 10266 10270 28
8217 10271 10272 28
8218 10271 10273 28
8219 10271 10274 28
8220 10271 10275 28
8221 10276 10277 28
8222 10276 10278 28
8223 10276 10279 28
8224 10276 10280 28
8225 10281 10282 28
8226 10281 10283 28
8227 10281 10284 28
8228 10281 10285 28
8229 10286 10287 28
8230 10286 10288 28
8231 10286 10289 28
8232 10286 10290 28
8233 10291 10292 28
8234 10291 10293 28
8235 10291 10294 28
8236 10291 10295 28
8237 10296 10297 28
8238 10296 10298 28
8239 10296 10299 28
8240 10296 10300 28
8241 10301 10302 28
8242 10301 10303 28
8243 10301 10304 28
8244 10301 10305 28
8245 10306 10307 28
8246 10306 10308 28
8247 10306 10309 28
8248 10306 10310 28
8249 10311 10312 28
8250 10311 10313 28
8251 10311 10314 28
8252 10311 10315 28
8253 10316 10317 28
8254 10316 10318 28
8255 10316 10319 28
8256 10316 10320 28
8257 10321 10322 28
8258 10321 10323 28
8259 10321 10324 28
8260 10321 10325 28
8261 10326 10327 28
8262 10326 10328 28
8263 10326 10329 28
8264 10326 10330 28
8265 10331 10332 28
8266 10331 10333 28
8267 10331 10334 28
8268 10331 10335 28
8269 10336 10337 28
8270 10336 10338 28
8271 10336 10339 28
8272 10336 10340 28
8273 10341 10342 28
8274 10341 10343 28
8275 10341 10344 28
8276 10341 10345 28
8277 10346 10347 28
8278 10346 10348 28
8279 10346 10349 28
8280 10346 10350 28
8281 10351 10352 28
8282 10351 10353 28
8283 10351 10354 28
8284 10351 10355 28
8285 10356 10357 28
8286 10356 10358 28
8287 10356 10359 28
8288 10356 10360 28
8289 10361 10362 28
8290 10361 10363 28
8291 10361 10364 28
8292 10361 10365 28
8293 10366 10367 28
8294 10366 10368 28
8295 10366 10369 28
8296 10366 10370 28
8297 10371 10372 28
8298 10371 10373 28
8299 10371 10374 28
8300 10371 10375 28
8301 10376 10377 28
8302 10376 10378 28
8303 10376 10379 28
8304 10376 10380 28
8305 10381 10382 28
8306 10381 10383 28
8307 10381 10384 28
8308 10381 10385 28
8309 10386 10387 28
8310 10386 10388 28
8311 10386 10389 28
8312 10386 10390 28
8313 10391 10392 28
8314 10391 10393 28
8315 10391 10394 28
8316 10391 10395 28
8317 10396 10397 28
8318 10396 10398 28
8319 10396 10399 28
8320 10396 10400 28
8321 10401 10402 28
8322 10401 10403 28
8323 10401 10404 28
8324 10401 10405 28
8325 10406 10407 28
8326 10406 10408 28
8327 10406 10409 28
8328 10406 10410 28
8329 10411 10412 28
8330 10411 10413 28
8331 10411 10414 28
8332 10411 10415 28
8333 10416 10417 28
8334 10416 10418 28
8335 10416 10419 28
8336 10416 10420 28
8337 10421 10422 28
8338 10421 10423 28
8339 10421 10424 28
8340 10421 10425 28
8341 10426 10427 28
8342 10426 10428 28
8343 10426 10429 28
8344 10426 10430 28
8345 10431 10432 28
8346 10431 10433 28
8347 10431 10434 28
8348 10431 10435 28
8349 10436 10437 28
8350 10436 10438 28
8351 10436 10439 28
8352 10436 10440 28
8353 10441 10442 28
8354 10441 10443 28
8355 10441 10444 28
8356 10441 10445 28
8357 10446 10447 28
8358 10446 10448 28
8359 10446 10449 28
8360 10446 10450 28
8361 10451 10452 28
8362 10451 10453 28
8363 10451 10454 28
8364 10451 10455 28
8365 10456 10457 28
8366 10456 10458 28
8367 10456 10459 28
8368 10456 10460 28
8369 10461 10462 28
8370 10461 10463 28
8371 10461 10464 28
8372 10461 10465 28
8373 10466 10467 28
8374 10466 10468 28
8375 10466 10469 28
8376 10466 10470 28
8377 10471 10472 28
8378 10471 10473 28
8379 10471 10474 28
8380 10471 10475 28
8381 10476 10477 28
8382 10476 10478 28
8383 10476 10479 28
8384 10476 10480 28
8385 10481 10482 28
8386 10481 10483 28
8387 10481 10484 28
8388 10481 10485 28
8389 10486 10487 28
8390 10486 10488 28
8391 10486 10489 28
8392 10486 10490 28
8393 10491 10492 28
8394 10491 10493 28
8395 10491 10494 28
8396 10491 10495 28
8397 10496 10497 28
8398 10496 10498 28
8399 10496 10499 28
8400 10496 10500 28
8401 10501 10502 28
8402 10501 10503 28
8403 10501 10504 28
8404 10501 10505 28
8405 10506 10507 28
8406 10506 10508 28
8407 10506 10509 28
8408 10506 10510 28
8409 10511 10512 28
8410 10511 10513 28
8411 10511 10514 28
8412 10511 10515 28
8413 10516 10517 28
8414 10516 10518 28
8415 10516 10519 28
8416 10516 10520 28
8417 10521 10522 28
8418 10521 10523 28
8419 10521 10524 28
8420 10521 10525 28
8421 10526 10527 28
8422 10526 10528 28
8423 10526 10529 28
8424 10526 10530 28
8425 10531 10532 28
8426 10531 10533 28
8427 10531 10534 28
8428 10531 10535 28
8429 10536 10537 28
8430 10536 10538 28
8431 10536 10539 28
8432 10536 10540 28
8433 10541 10542 28
8434 10541 10543 28
8435 10541 10544 28
8436 10541 10545 28
8437 10546 10547 28
8438 10546 10548 28
8439 10546 10549 28
8440 10546 10550 28
8441 10551 10552 28
8442 10551 10553 28
8443 10551 10554 28
8444 10551 10555 28
8445 10556 10557 28
8446 10556 10558 28
8447 10556 10559 28
8448 10556 10560 28
8449 10561 10562 28
8450 10561 10563 28
8451 10561 10564 28
8452 10561 10565 28
8453 10566 10567 28
8454 10566 10568 28
8455 10566 10569 28
8456 10566 10570 28
8457 10571 10572 28
8458 10571 10573 28
8459 10571 10574 28
8460 10571 10575 28
8461 10576 10577 28
8462 10576 10578 28
8463 10576 10579 28
8464 10576 10580 28
8465 10581 10582 28
8466 10581 10583 28
8467 10581 10584 28
8468 10581 10585 28
8469 10586 10587 28
8470 10586 10588 28
8471 10586 10589 28
8472 10586 10590 28
8473 10591 10592 28
8474 10591 10593 28
8475 10591 10594 28
8476 10591 10595 28
8477 10596 10597 28
8478 10596 10598 28
8479 10596 10599 28
8480 10596 10600 28
8481 10601 10602 28
8482 10601 10603 28
8483 10601 10604 28
8484 10601 10605 28
8485 10606 10607 28
8486 10606 10608 28
8487 10606 10609 28
8488 10606 10610 28
8489 10611 10612 28
8490 10611 10613 28
8491 10611 10614 28
8492 10611 10615 28
8493 10616 10617 28
8494 10616 10618 28
8495 10616 10619 28
8496 10616 10620 28
8497 10621 10622 28
8498 10621 10623 28
8499 10621 10624 28
8500 10621 10625 28
8501 10626 10627 28
8502 10626 10628 28
8503 10626 10629 28
8504 10626 10630 28
8505 10631 10632 28
8506 10631 10633 28
8507 10631 10634 28
8508 10631 10635 28
8509 10636 10637 28
8510 10636 10638 28
8511 10636 10639 28
8512 10636 10640 28
8513 10641 10642 28
8514 10641 10643 28
8515 10641 10644 28
8516 10641 10645 28
8517 10646 10647 28
8518 10646 10648 28
8519 10646 10649 28
8520 10646 10650 28
8521 10651 10652 28
8522 10651 10653 28
8523 10651 10654 28
8524 10651 10655 28
8525 10656 10657 28
8526 10656 10658 28
8527 10656 10659 28
8528 10656 10660 28
8529 10661 10662 28
8530 10661 10663 28
8531 10661 10664 28
8532 10661 10665 28
8533 10666 10667 28
8534 10666 10668 28
8535 10666 10669 28
8536 10666 10670 28
8537 10671 10672 28
8538 10671 10673 28
8539 10671 10674 28
8540 10671 10675 28
8541 10676 10677 28
8542 10676 10678 28
8543 10676 10679 28
8544 10676 10680 28
8545 10681 10682 28
8546 10681 10683 28
8547 10681 10684 28
8548 10681 10685 28
8549 10686 10687 28
8550 10686 10688 28
8551 10686 10689 28
8552 10686 10690 28
8553 10691 10692 28
8554 10691 10693 28
8555 10691 10694 28
8556 10691 10695 28
8557 10696 10697 28
8558 10696 10698 28
8559 10696 10699 28
8560 10696 10700 28
8561 10701 10702 28
8562 10701 10703 28
8563 10701 10704 28
8564 10701 10705 28
8565 10706 10707 28
8566 10706 10708 28
8567 10706 10709 28
8568 10706 10710 28
8569 10711 10712 28
8570 10711 10713 28
8571 10711 10714 28
8572 10711 10715 28
8573 10716 10717 28
8574 10716 10718 28
8575 10716 10719 28
8576 10716 10720 28
8577 10721 10722 28
8578 10721 10723 28
8579 10721 10724 28
8580 10721 10725 28
8581 10726 10727 28
8582 10726 10728 28
8583 10726 10729 28
8584 10726 10730 28
8585 10731 10732 28
8586 10731 10733 28
8587 10731 10734 28
8588 10731 10735 28
8589 10736 10737 28
8590 10736 10738 28
8591 10736 10739 28
8592 10736 10740 28
8593 10741 10742 28
8594 10741 10743 28
8595 10741 10744 28
8596 10741 10745 28
8597 10746 10747 28
8598 10746 10748 28
8599 10746 10749 28
8600 10746 10750 28
8601 10751 10752 28
8602 10751 10753 28
8603 10751 10754 28
8604 10751 10755 28
8605 10756 10757 28
8606 10756 10758 28
8607 10756 10759 28
8608 10756 10760 28
8609 10761 10762 28
8610 10761 10763 28
8611 10761 10764 28
8612 10761 10765 28
8613 10766 10767 28
8614 10766 10768 28
8615 10766 10769 28
8616 10766 10770 28
8617 10771 10772 28
8618 10771 10773 28
8619 10771 10774 28
8620 10771 10775 28
8621 10776 10777 28
8622 10776 10778 28
8623 10776 10779 28
8624 10776 10780 28
8625 10781 10782 28
8626 10781 10783 28
8627 10781 10784 28
8628 10781 10785 28
8629 10786 10787 28
8630 10786 10788 28
8631 10786 10789 28
8632 10786 10790 28
8633 10791 10792 28
8634 10791 10793 28
8635 10791 10794 28
8636 10791 10795 28
8637 10796 10797 28
8638 10796 10798 28
8639 10796 10799 28
8640 10796 10800 28
8641 10801 10802 28
8642 10801 10803 28
8643 10801 10804 28
8644 10801 10805 28
8645 10806 10807 28
8646 10806 10808 28
8647 10806 10809 28
8648 10806 10810 28
8649 10811 10812 28
8650 10811 10813 28
8651 10811 10814 28
8652 10811 10815 28
8653 10816 10817 28
8654 10816 10818 28
8655 10816 10819 28
8656 10816 10820 28
8657 10821 10822 28
8658 10821 10823 28
8659 10821 10824 28
8660 10821 10825 28
8661 10826 10827 28
8662 10826 10828 28
8663 10826 10829 28
8664 10826 10830 28
8665 10831 10832 28
8666 10831 10833 28
8667 10831 10834 28
8668 10831 10835 28
8669 10836 10837 28
8670 10836 10838 28
8671 10836 10839 28
8672 10836 10840 28
8673 10841 10842 28
8674 10841 10843 28
8675 10841 10844 28
8676 10841 10845 28
8677 10846 10847 28
8678 10846 10848 28
8679 10846 10849 28
8680 10846 10850 28
8681 10851 10852 28
8682 10851 10853 28
8683 10851 10854 28
8684 10851 10855 28
8685 10856 10857 28
8686 10856 10858 28
8687 10856 10859 28
8688 10856 10860 28
8689 10861 10862 28
8690 10861 10863 28
8691 10861 10864 28
8692 10861 10865 28
8693 10866 10867 28
8694 10866 10868 28
8695 10866 10869 28
8696 10866 10870 28
8697 10871 10872 28
8698 10871 10873 28
8699 10871 10874 28
8700 10871 10875 28
8701 10876 10877 28
8702 10876 10878 28
8703 10876 10879 28
8704 10876 10880 28
8705 10881 10882 28
8706 10881 10883 28
8707 10881 10884 28
8708 10881 10885 28
8709 10886 10887 28
8710 10886 10888 28
8711 10886 10889 28
8712 10886 10890 28
8713 10891 10892 28
8714 10891 10893 28
8715 10891 10894 28
8716 10891 10895 28
8717 10896 10897 28
8718 10896 10898 28
8719 10896 10899 28
8720 10896 10900 28
8721 10901 10902 28
8722 10901 10903 28
8723 10901 10904 28
8724 10901 10905 28
8725 10906 10907 28
8726 10906 10908 28
8727 10906 10909 28
8728 10906 10910 28
8729 10911 10912 28
8730 10911 10913 28
8731 10911 10914 28
8732 10911 10915 28
8733 10916 10917 28
8734 10916 10918 28
8735 10916 10919 28
8736 10916 10920 28
8737 10921 10922 28
8738 10921 10923 28
8739 10921 10924 28
8740 10921 10925 28
8741 10926 10927 28
8742 10926 10928 28
8743 10926 10929 28
8744 10926 10930 28
8745 10931 10932 28
8746 10931 10933 28
8747 10931 10934 28
8748 10931 10935 28
8749 10936 10937 28
8750 10936 10938 28
8751 10936 10939 28
8752 10936 10940 28
8753 10941 10942 28
8754 10941 10943 28
8755 10941 10944 28
8756 10941 10945 28
8757 10946 10947 28
8758 10946 10948 28
8759 10946 10949 28
8760 10946 10950 28
8761 10951 10952 28
8762 10951 10953 28
8763 10951 10954 28
8764 10951 10955 28
8765 10956 10957 28
8766 10956 10958 28
8767 10956 10959 28
8768 10956 10960 28
8769 10961 10962 28
8770 10961 10963 28
8771 10961 10964 28
8772 10961 10965 28
8773 10966 10967 28
8774 10966 10968 28
8775 10966 10969 28
8776 10966 10970 28
8777 10971 10972 28
8778 10971 10973 28
8779 10971 10974 28
8780 10971 10975 28
8781 10976 10977 28
8782 10976 10978 28
8783 10976 10979 28
8784 10976 10980 28
8785 10981 10982 28
8786 10981 10983 28
8787 10981 10984 28
8788 10981 10985 28
8789 10986 10987 28
8790 10986 10988 28
8791 10986 10989 28
8792 10986 10990 28
8793 10991 10992 28
8794 10991 10993 28
8795 10991 10994 28
8796 10991 10995 28
8797 10996 10997 28
8798 10996 10998 28
8799 10996 10999 28
8800 10996 11000 28
8801 11001 11002 28
8802 11001 11003 28
8803 11001 11004 28
8804 11001 11005 28
8805 11006 11007 28
8806 11006 11008 28
8807 11006 11009 28
8808 11006 11010 28
8809 11011 11012 28
8810 11011 11013 28
8811 11011 11014 28
8812 11011 11015 28
8813 11016 11017 28
8814 11016 11018 28
8815 11016 11019 28
8816 11016 11020 28
8817 11021 11022 28
8818 11021 11023 28
8819 11021 11024 28
8820 11021 11025 28
8821 11026 11027 28
8822 11026 11028 28
8823 11026 11029 28
8824 11026 11030 28
8825 11031 11032 28
8826 11031 11033 28
8827 11031 11034 28
8828 11031 11035 28
8829 11036 11037 28
8830 11036 11038 28
8831 11036 11039 28
8832 11036 11040 28
8833 11041 11042 28
8834 11041 11043 28
8835 11041 11044 28
8836 11041 11045 28
8837 11046 11047 28
8838 11046 11048 28
8839 11046 11049 28
8840 11046 11050 28
8841 11051 11052 28
8842 11051 11053 28
8843 11051 11054 28
8844 11051 11055 28
8845 11056 11057 28
8846 11056 11058 28
8847 11056 11059 28
8848 11056 11060 28
8849 11061 11062 28
8850 11061 11063 28
8851 11061 11064 28
8852 11061 11065 28
8853 11066 11067 28
8854 11066 11068 28
8855 11066 11069 28
8856 11066 11070 28
8857 11071 11072 28
8858 11071 11073 28
8859 11071 11074 28
8860 11071 11075 28
8861 11076 11077 28
8862 11076 11078 28
8863 11076 11079 28
8864 11076 11080 28
8865 11081 11082 28
8866 11081 11083 28
8867 11081 11084 28
8868 11081 11085 28
8869 11086 11087 28
8870 11086 11088 28
8871 11086 11089 28
8872 11086 11090 28
8873 11091 11092 28
8874 11091 11093 28
8875 11091 11094 28
8876 11091 11095 28
8877 11096 11097 28
8878 11096 11098 28
8879 11096 11099 28
8880 11096 11100 28
8881 11101 11102 28
8882 11101 11103 28
8883 11101 11104 28
8884 11101 11105 28
8885 11106 11107 28
8886 11106 11108 28
8887 11106 11109 28
8888 11106 11110 28
8889 11111 11112 28
8890 11111 11113 28
8891 11111 11114 28
8892 11111 11115 28
8893 11116 11117 28
8894 11116 11118 28
8895 11116 11119 28
8896 11116 11120 28
8897 11121 11122 28
8898 11121 11123 28
8899 11121 11124 28
8900 11121 11125 28
8901 11126 11127 28
8902 11126 11128 28
8903 11126 11129 28
8904 11126 11130 28
8905 11131 11132 28
8906 11131 11133 28
8907 11131 11134 28
8908 11131 11135 28
8909 11136 11137 28
8910 11136 11138 28
8911 11136 11139 28
8912 11136 11140 28
8913 11141 11142 28
8914 11141 11143 28
8915 11141 11144 28
8916 11141 11145 28
8917 11146 11147 28
8918 11146 11148 28
8919 11146 11149 28
8920 11146 11150 28
8921 11151 11152 28
8922 11151 11153 28
8923 11151 11154 28
8924 11151 11155 28
8925 11156 11157 28
8926 11156 11158 28
8927 11156 11159 28
8928 11156 11160 28
8929 11161 11162 28
8930 11161 11163 28
8931 11161 11164 28
8932 11161 11165 28
8933 11166 11167 28
8934 11166 11168 28
8935 11166 11169 28
8936 11166 11170 28
8937 11171 11172 28
8938 11171 11173 28
8939 11171 11174 28
8940 11171 11175 28
8941 11176 11177 28
8942 11176 11178 28
8943 11176 11179 28
8944 11176 11180 28
8945 11181 11182 28
8946 11181 11183 28
8947 11181 11184 28
8948 11181 11185 28
8949 11186 11187 28
8950 11186 11188 28
8951 11186 11189 28
8952 11186 11190 28
8953 11191 11192 28
8954 11191 11193 28
8955 11191 11194 28
8956 11191 11195 28
8957 11196 11197 28
8958 11196 11198 28
8959 11196 11199 28
8960 11196 11200 28
8961 11201 11202 28
8962 11201 11203 28
8963 11201 11204 28
8964 11201 11205 28
8965 11206 11207 28
8966 11206 11208 28
8967 11206 11209 28
8968 11206 11210 28
8969 11211 11212 28
8970 11211 11213 28
8971 11211 11214 28
8972 11211 11215 28
8973 11216 11217 28
8974 11216 11218 28
8975 11216 11219 28
8976 11216 11220 28
8977 11221 11222 28
8978 11221 11223 28
8979 11221 11224 28
8980 11221 11225 28
8981 11226 11227 28
8982 11226 11228 28
8983 11226 11229 28
8984 11226 11230 28
8985 11231 11232 28
8986 11231 11233 28
8987 11231 11234 28
8988 11231 11235 28
8989 11236 11237 28
8990 11236 11238 28
8991 11236 11239 28
8992 11236 11240 28
8993 11241 11242 28
8994 11241 11243 28
8995 11241 11244 28
8996 11241 11245 28
8997 11246 11247 28
8998 11246 11248 28
8999 11246 11249 28
9000 11246 11250 28
9001 11251 11252 28
9002 11251 11253 28
9003 11251 11254 28
9004 11251 11255 28
9005 11256 11257 28
9006 11256 11258 28
9007 11256 11259 28
9008 11256 11260 28
9009 11261 11262 28
9010 11261 11263 28
9011 11261 11264 28
9012 11261 11265 28
9013 11266 11267 28
9014 11266 11268 28
9015 11266 11269 28
9016 11266 11270 28
9017 11271 11272 28
9018 11271 11273 28
9019 11271 11274 28
9020 11271 11275 28
9021 11276 11277 28
9022 11276 11278 28
9023 11276 11279 28
9024 11276 11280 28
9025 11281 11282 28
9026 11281 11283 28
9027 11281 11284 28
9028 11281 11285 28
9029 11286 11287 28
9030 11286 11288 28
9031 11286 11289 28
9032 11286 11290 28
9033 11291 11292 28
9034 11291 11293 28
9035 11291 11294 28
9036 11291 11295 28
9037 11296 11297 28
9038 11296 11298 28
9039 11296 11299 28
9040 11296 11300 28
9041 11301 11302 28
9042 11301 11303 28
9043 11301 11304 28
9044 11301 11305 28
9045 11306 11307 28
9046 11306 11308 28
9047 11306 11309 28
9048 11306 11310 28
9049 11311 11312 28
9050 11311 11313 28
9051 11311 11314 28
9052 11311 11315 28
9053 11316 11317 28
9054 11316 11318 28
9055 11316 11319 28
9056 11316 11320 28
9057 11321 11322 28
9058 11321 11323 28
9059 11321 11324 28
9060 11321 11325 28
9061 11326 11327 28
9062 11326 11328 28
9063 11326 11329 28
9064 11326 11330 28
9065 11331 11332 28
9066 11331 11333 28
9067 11331 11334 28
9068 11331 11335 28
9069 11336 11337 28
9070 11336 11338 28
9071 11336 11339 28
9072 11336 11340 28
9073 11341 11342 28
9074 11341 11343 28
9075 11341 11344 28
9076 11341 11345 28
9077 11346 11347 28
9078 11346 11348 28
9079 11346 11349 28
9080 11346 11350 28
9081 11351 11352 28
9082 11351 11353 28
9083 11351 11354 28
9084 11351 11355 28
9085 11356 11357 28
9086 11356 11358 28
9087 11356 11359 28
9088 11356 11360 28
9089 11361 11362 28
9090 11361 11363 28
9091 11361 11364 28
9092 11361 11365 28
9093 11366 11367 28
9094 11366 11368 28
9095 11366 11369 28
9096 11366 11370 28
9097 11371 11372 28
9098 11371 11373 28
9099 11371 11374 28
9100 11371 11375 28
9101 11376 11377 28
9102 11376 11378 28
9103 11376 11379 28
9104 11376 11380 28
9105 11381 11382 28
9106 11381 11383 28
9107 11381 11384 28
9108 11381 11385 28
9109 11386 11387 28
9110 11386 11388 28
9111 11386 11389 28
9112 11386 11390 28
9113 11391 11392 28
9114 11391 11393 28
9115 11391 11394 28
9116 11391 11395 28
9117 11396 11397 28
9118 11396 11398 28
9119 11396 11399 28
9120 11396 11400 28
9121 11401 11402 28
9122 11401 11403 28
9123 11401 11404 28
9124 11401 11405 28
9125 11406 11407 28
9126 11406 11408 28
9127 11406 11409 28
9128 11406 11410 28
9129 11411 11412 28
9130 11411 11413 28
9131 11411 11414 28
9132 11411 11415 28
9133 11416 11417 28
9134 11416 11418 28
9135 11416 11419 28
9136 11416 11420 28
9137 11421 11422 28
9138 11421 11423 28
9139 11421 11424 28
9140 11421 11425 28
9141 11426 11427 28
9142 11426 11428 28
9143 11426 11429 28
9144 11426 11430 28
9145 11431 11432 28
9146 11431 11433 28
9147 11431 11434 28
9148 11431 11435 28
9149 11436 11437 28
9150 11436 11438 28
9151 11436 11439 28
9152 11436 11440 28
9153 11441 11442 28
9154 11441 11443 28
9155 11441 11444 28
9156 11441 11445 28
9157 11446 11447 28
9158 11446 11448 28
9159 11446 11449 28
9160 11446 11450 28
9161 11451 11452 28
9162 11451 11453 28
9163 11451 11454 28
9164 11451 11455 28
9165 11456 11457 28
9166 11456 11458 28
9167 11456 11459 28
9168 11456 11460 28
9169 11461 11462 28
9170 11461 11463 28
9171 11461 11464 28
9172 11461 11465 28
9173 11466 11467 28
9174 11466 11468 28
9175 11466 11469 28
9176 11466 11470 28
9177 11471 11472 28
9178 11471 11473 28
9179 11471 11474 28
9180 11471 11475 28
9181 11476 11477 28
9182 11476 11478 28
9183 11476 11479 28
9184 11476 11480 28
9185 11481 11482 28
9186 11481 11483 28
9187 11481 11484 28
9188 11481 11485 28
9189 11486 11487 28
9190 11486 11488 28
9191 11486 11489 28
9192 11486 11490 28
9193 11491 11492 28
9194 11491 11493 28
9195 11491 11494 28
9196 11491 11495 28
9197 11496 11497 28
9198 11496 11498 28
9199 11496 11499 28
9200 11496 11500 28
9201 11501 11502 28
9202 11501 11503 28
9203 11501 11504 28
9204 11501 11505 28
9205 11506 11507 28
9206 11506 11508 28
9207 11506 11509 28
9208 11506 11510 28
9209 11511 11512 28
9210 11511 11513 28
9211 11511 11514 28
9212 11511 11515 28
9213 11516 11517 28
9214 11516 11518 28
9215 11516 11519 28
9216 11516 11520 28
9217 11521 11522 28
9218 11521 11523 28
9219 11521 11524 28
9220 11521 11525 28
9221 11526 11527 28
9222 11526 11528 28
9223 11526 11529 28
9224 11526 11530 28
9225 11531 11532 28
9226 11531 11533 28
9227 11531 11534 28
9228 11531 11535 28
9229 11536 11537 28
9230 11536 11538 28
9231 11536 11539 28
9232 11536 11540 28
9233 11541 11542 28
9234 11541 11543 28
9235 11541 11544 28
9236 11541 11545 28
9237 11546 11547 28
9238 11546 11548 28
9239 11546 11549 28
9240 11546 11550 28
9241 11551 11552 28
9242 11551 11553 28
9243 11551 11554 28
9244 11551 11555 28
9245 11556 11557 28
9246 11556 11558 28
9247 11556 11559 28
9248 11556 11560 28
9249 11561 11562 28
9250 11561 11563 28
9251 11561 11564 28
9252 11561 11565 28
9253 11566 11567 28
9254 11566 11568 28
9255 11566 11569 28
9256 11566 11570 28
9257 11571 11572 28
9258 11571 11573 28
9259 11571 11574 28
9260 11571 11575 28
9261 11576 11577 28
9262 11576 11578 28
9263 11576 11579 28
9264 11576 11580 28
9265 11581 11582 28
9266 11581 11583 28
9267 11581 11584 28
9268 11581 11585 28
9269 11586 11587 28
9270 11586 11588 28
9271 11586 11589 28
9272 11586 11590 28
9273 11591 11592 28
9274 11591 11593 28
9275 11591 11594 28
9276 11591 11595 28
9277 11596 11597 28
9278 11596 11598 28
9279 11596 11599 28
9280 11596 11600 28
9281 11601 11602 28
9282 11601 11603 28
9283 11601 11604 28
9284 11601 11605 28
9285 11606 11607 28
9286 11606 11608 28
9287 11606 11609 28
9288 11606 11610 28
9289 11611 11612 28
9290 11611 11613 28
9291 11611 11614 28
9292 11611 11615 28
9293 11616 11617 28
9294 11616 11618 28
9295 11616 11619 28
9296 11616 11620 28
9297 11621 11622 28
9298 11621 11623 28
9299 11621 11624 28
9300 11621 11625 28
9301 11626 11627 28
9302 11626 11628 28
9303 11626 11629 28
9304 11626 11630 28
9305 11631 11632 28
9306 11631 11633 28
9307 11631 11634 28
9308 11631 11635 28
9309 11636 11637 28
9310 11636 11638 28
9311 11636 11639 28
9312 11636 11640 28
9313 11641 11642 28
9314 11641 11643 28
9315 11641 11644 28
9316 11641 11645 28
9317 11646 11647 28
9318 11646 11648 28
9319 11646 11649 28
9320 11646 11650 28
9321 11651 11652 28
9322 11651 11653 28
9323 11651 11654 28
9324 11651 11655 28
9325 11656 11657 28
9326 11656 11658 28
9327 11656 11659 28
9328 11656 11660 28
9329 11661 11662 28
9330 11661 11663 28
9331 11661 11664 28
9332 11661 11665 28
9333 11666 11667 28
9334 11666 11668 28
9335 11666 11669 28
9336 11666 11670 28
9337 11671 11672 28
9338 11671 11673 28
9339 11671 11674 28
9340 11671 11675 28
9341 11676 11677 28
9342 11676 11678 28
9343 11676 11679 28
9344 11676 11680 28
9345 11681 11682 28
9346 11681 11683 28
9347 11681 11684 28
9348 11681 11685 28
9349 11686 11687 28
9350 11686 11688 28
9351 11686 11689 28
9352 11686 11690 28
9353 11691 11692 28
9354 11691 11693 28
9355 11691 11694 28
9356 11691 11695 28
9357 11696 11697 28
9358 11696 11698 28
9359 11696 11699 28
9360 11696 11700 28
9361 11701 11702 28
9362 11701 11703 28
9363 11701 11704 28
9364 11701 11705 28
9365 11706 11707 28
9366 11706 11708 28
9367 11706 11709 28
9368 11706 11710 28
9369 11711 11712 28
9370 11711 11713 28
9371 11711 11714 28
9372 11711 11715 28
9373 11716 11717 28
9374 11716 11718 28
9375 11716 11719 28
9376 11716 11720 28
9377 11721 11722 28
9378 11721 11723 28
9379 11721 11724 28
9380 11721 11725 28
9381 11726 11727 28
9382 11726 11728 28
9383 11726 11729 28
9384 11726 11730 28
9385 11731 11732 28
9386 11731 11733 28
9387 11731 11734 28
9388 11731 11735 28
9389 11736 11737 28
9390 11736 11738 28
9391 11736 11739 28
9392 11736 11740 28
9393 11741 11742 28
9394 11741 11743 28
9395 11741 11744 28
9396 11741 11745 28
9397 11746 11747 28
9398 11746 11748 28
9399 11746 11749 28
9400 11746 11750 28
9401 11751 11752 28
9402 11751 11753 28
9403 11751 11754 28
9404 11751 11755 28
9405 11756 11757 28
9406 11756 11758 28
9407 11756 11759 28
9408 11756 11760 28
9409 11761 11762 28
9410 11761 11763 28
9411 11761 11764 28
9412 11761 11765 28
9413 11766 11767 28
9414 11766 11768 28
9415 11766 11769 28
9416 11766 11770 28
9417 11771 11772 28
9418 11771 11773 28
9419 11771 11774 28
9420 11771 11775 28
9421 11776 11777 28
9422 11776 11778 28
9423 11776 11779 28
9424 11776 11780 28
9425 11781 11782 28
9426 11781 11783 28
9427 11781 11784 28
9428 11781 11785 28
9429 11786 11787 28
9430 11786 11788 28
9431 11786 11789 28
9432 11786 11790 28
9433 11791 11792 28
9434 11791 11793 28
9435 11791 11794 28
9436 11791 11795 28
9437 11796 11797 28
9438 11796 11798 28
9439 11796 11799 28
9440 11796 11800 28
9441 11801 11802 28
9442 11801 11803 28
9443 11801 11804 28
9444 11801 11805 28
9445 11806 11807 28
9446 11806 11808 28
9447 11806 11809 28
9448 11806 11810 28
9449 11811 11812 28
9450 11811 11813 28
9451 11811 11814 28
9452 11811 11815 28
9453 11816 11817 28
9454 11816 11818 28
9455 11816 11819 28
9456 11816 11820 28
9457 11821 11822 28
9458 11821 11823 28
9459 11821 11824 28
9460 11821 11825 28
9461 11826 11827 28
9462 11826 11828 28
9463 11826 11829 28
9464 11826 11830 28
9465 11831 11832 28
9466 11831 11833 28
9467 11831 11834 28
9468 11831 11835 28
9469 11836 11837 28
9470 11836 11838 28
9471 11836 11839 28
9472 11836 11840 28
9473 11841 11842 28
9474 11841 11843 28
9475 11841 11844 28
9476 11841 11845 28
9477 11846 11847 28
9478 11846 11848 28
9479 11846 11849 28
9480 11846 11850 28
9481 11851 11852 28
9482 11851 11853 28
9483 11851 11854 28
9484 11851 11855 28
9485 11856 11857 28
9486 11856 11858 28
9487 11856 11859 28
9488 11856 11860 28
9489 11861 11862 28
9490 11861 11863 28
9491 11861 11864 28
9492 11861 11865 28
9493 11866 11867 28
9494 11866 11868 28
9495 11866 11869 28
9496 11866 11870 28
9497 11871 11872 28
9498 11871 11873 28
9499 11871 11874 28
9500 11871 11875 28
9501 11876 11877 28
9502 11876 11878 28
9503 11876 11879 28
9504 11876 11880 28
9505 11881 11882 28
9506 11881 11883 28
9507 11881 11884 28
9508 11881 11885 28
9509 11886 11887 28
9510 11886 11888 28
9511 11886 11889 28
9512 11886 11890 28
9513 11891 11892 28
9514 11891 11893 28
9515 11891 11894 28
9516 11891 11895 28
9517 11896 11897 28
9518 11896 11898 28
9519 11896 11899 28
9520 11896 11900 28
9521 11901 11902 28
9522 11901 11903 28
9523 11901 11904 28
9524 11901 11905 28
9525 11906 11907 28
9526 11906 11908 28
9527 11906 11909 28
9528 11906 11910 28
9529 11911 11912 28
9530 11911 11913 28
9531 11911 11914 28
9532 11911 11915 28
9533 11916 11917 28
9534 11916 11918 28
9535 11916 11919 28
9536 11916 11920 28
9537 11921 11922 28
9538 11921 11923 28
9539 11921 11924 28
9540 11921 11925 28
9541 11926 11927 28
9542 11926 11928 28
9543 11926 11929 28
9544 11926 11930 28
9545 11931 11932 28
9546 11931 11933 28
9547 11931 11934 28
9548 11931 11935 28
9549 11936 11937 28
9550 11936 11938 28
9551 11936 11939 28
9552 11936 11940 28
9553 11941 11942 28
9554 11941 11943 28
9555 11941 11944 28
9556 11941 11945 28
9557 11946 11947 28
9558 11946 11948 28
9559 11946 11949 28
9560 11946 11950 28
9561 11951 11952 28
9562 11951 11953 28
9563 11951 11954 28
9564 11951 11955 28
9565 11956 11957 28
9566 11956 11958 28
9567 11956 11959 28
9568 11956 11960 28
9569 11961 11962 28
9570 11961 11963 28
9571 11961 11964 28
9572 11961 11965 28
9573 11966 11967 28
9574 11966 11968 28
9575 11966 11969 28
9576 11966 11970 28
9577 11971 11972 28
9578 11971 11973 28
9579 11971 11974 28
9580 11971 11975 28
9581 11976 11977 28
9582 11976 11978 28
9583 11976 11979 28
9584 11976 11980 28
9585 11981 11982 28
9586 11981 11983 28
9587 11981 11984 28
9588 11981 11985 28
9589 11986 11987 28
9590 11986 11988 28
9591 11986 11989 28
9592 11986 11990 28
9593 11991 11992 28
9594 11991 11993 28
9595 11991 11994 28
9596 11991 11995 28
9597 11996 11997 28
9598 11996 11998 28
9599 11996 11999 28
9600 11996 12000 28
9601 12001 12002 28
9602 12001 12003 28
9603 12001 12004 28
9604 12001 12005 28
9605 12006 12007 28
9606 12006 12008 28
9607 12006 12009 28
9608 12006 12010 28
9609 12011 12012 28
9610 12011 12013 28
9611 12011 12014 28
9612 12011 12015 28
9613 12016 12017 28
9614 12016 12018 28
9615 12016 12019 28
9616 12016 12020 28
9617 12021 12022 28
9618 12021 12023 28
9619 12021 12024 28
9620 12021 12025 28
9621 12026 12027 28
9622 12026 12028 28
9623 12026 12029 28
9624 12026 12030 28
9625 12031 12032 28
9626 12031 12033 28
9627 12031 12034 28
9628 12031 12035 28
9629 12036 12037 28
9630 12036 12038 28
9631 12036 12039 28
9632 12036 12040 28
9633 12041 12042 28
9634 12041 12043 28
9635 12041 12044 28
9636 12041 12045 28
9637 12046 12047 28
9638 12046 12048 28
9639 12046 12049 28
9640 12046 12050 28
9641 12051 12052 28
9642 12051 12053 28
9643 12051 12054 28
9644 12051 12055 28
9645 12056 12057 28
9646 12056 12058 28
9647 12056 12059 28
9648 12056 12060 28
9649 12061 12062 28
9650 12061 12063 28
9651 12061 12064 28
9652 12061 12065 28
9653 12066 12067 28
9654 12066 12068 28
9655 12066 12069 28
9656 12066 12070 28
9657 12071 12072 28
9658 12071 12073 28
9659 12071 12074 28
9660 12071 12075 28
9661 12076 12077 28
9662 12076 12078 28
9663 12076 12079 28
9664 12076 12080 28
9665 12081 12082 28
9666 12081 12083 28
9667 12081 12084 28
9668 12081 12085 28
9669 12086 12087 28
9670 12086 12088 28
9671 12086 12089 28
9672 12086 12090 28
9673 12091 12092 28
9674 12091 12093 28
9675 12091 12094 28
9676 12091 12095 28
9677 12096 12097 28
9678 12096 12098 28
9679 12096 12099 28
9680 12096 12100 28
9681 12101 12102 28
9682 12101 12103 28
9683 12101 12104 28
9684 12101 12105 28
9685 12106 12107 28
9686 12106 12108 28
9687 12106 12109 28
9688 12106 12110 28
9689 12111 12112 28
9690 12111 12113 28
9691 12111 12114 28
9692 12111 12115 28
9693 12116 12117 28
9694 12116 12118 28
9695 12116 12119 28
9696 12116 12120 28
9697 12121 12122 28
9698 12121 12123 28
9699 12121 12124 28
9700 12121 12125 28
9701 12126 12127 28
9702 12126 12128 28
9703 12126 12129 28
9704 12126 12130 28
9705 12131 12132 28
9706 12131 12133 28
9707 12131 12134 28
9708 12131 12135 28
9709 12136 12137 28
9710 12136 12138 28
9711 12136 12139 28
9712 12136 12140 28
9713 12141 12142 28
9714 12141 12143 28
9715 12141 12144 28
9716 12141 12145 28
9717 12146 12147 28
9718 12146 12148 28
9719 12146 12149 28
9720 12146 12150 28
9721 12151 12152 28
9722 12151 12153 28
9723 12151 12154 28
9724 12151 12155 28
9725 12156 12157 28
9726 12156 12158 28
9727 12156 12159 28
9728 12156 12160 28
9729 12161 12162 28
9730 12161 12163 28
9731 12161 12164 28
9732 12161 12165 28
9733 12166 12167 28
9734 12166 12168 28
9735 12166 12169 28
9736 12166 12170 28
9737 12171 12172 28
9738 12171 12173 28
9739 12171 12174 28
9740 12171 12175 28
9741 12176 12177 28
9742 12176 12178 28
9743 12176 12179 28
9744 12176 12180 28
9745 12181 12182 28
9746 12181 12183 28
9747 12181 12184 28
9748 12181 12185 28
9749 12186 12187 28
9750 12186 12188 28
9751 12186 12189 28
9752 12186 12190 28
9753 12191 12192 28
9754 12191 12193 28
9755 12191 12194 28
9756 12191 12195 28
9757 12196 12197 28
9758 12196 12198 28
9759 12196 12199 28
9760 12196 12200 28
9761 12201 12202 28
9762 12201 12203 28
9763 12201 12204 28
9764 12201 12205 28
9765 12206 12207 28
9766 12206 12208 28
9767 12206 12209 28
9768 12206 12210 28
9769 12211 12212 28
9770 12211 12213 28
9771 12211 12214 28
9772 12211 12215 28
9773 12216 12217 28
9774 12216 12218 28
9775 12216 12219 28
9776 12216 12220 28
9777 12221 12222 28
9778 12221 12223 28
9779 12221 12224 28
9780 12221 12225 28
9781 12226 12227 28
9782 12226 12228 28
9783 12226 12229 28
9784 12226 12230 28
9785 12231 12232 28
9786 12231 12233 28
9787 12231 12234 28
9788 12231 12235 28
9789 12236 12237 28
9790 12236 12238 28
9791 12236 12239 28
9792 12236 12240 28
9793 12241 12242 28
9794 12241 12243 28
9795 12241 12244 28
9796 12241 12245 28
9797 12246 12247 28
9798 12246 12248 28
9799 12246 12249 28
9800 12246 12250 28
9801 12251 12252 28
9802 12251 12253 28
9803 12251 12254 28
9804 12251 12255 28
9805 12256 12257 28
9806 12256 12258 28
9807 12256 12259 28
9808 12256 12260 28
9809 12261 12262 28
9810 12261 12263 28
9811 12261 12264 28
9812 12261 12265 28
9813 12266 12267 28
9814 12266 12268 28
9815 12266 12269 28
9816 12266 12270 28
9817 12271 12272 28
9818 12271 12273 28
9819 12271 12274 28
9820 12271 12275 28
9821 12276 12277 28
9822 12276 12278 28
9823 12276 12279 28
9824 12276 12280 28
9825 12281 12282 28
9826 12281 12283 28
9827 12281 12284 28
9828 12281 12285 28
9829 12286 12287 28
9830 12286 12288 28
9831 12286 12289 28
9832 12286 12290 28
9833 12291 12292 28
9834 12291 12293 28
9835 12291 12294 28
9836 12291 12295 28
9837 12296 12297 28
9838 12296 12298 28
9839 12296 12299 28
9840 12296 12300 28
9841 12301 12302 28
9842 12301 12303 28
9843 12301 12304 28
9844 12301 12305 28
9845 12306 12307 28
9846 12306 12308 28
9847 12306 12309 28
9848 12306 12310 28
9849 12311 12312 28
9850 12311 12313 28
9851 12311 12314 28
9852 12311 12315 28
9853 12316 12317 28
9854 12316 12318 28
9855 12316 12319 28
9856 12316 12320 28
9857 12321 12322 28
9858 12321 12323 28
9859 12321 12324 28
9860 12321 12325 28
9861 12326 12327 28
9862 12326 12328 28
9863 12326 12329 28
9864 12326 12330 28
9865 12331 12332 28
9866 12331 12333 28
9867 12331 12334 28
9868 12331 12335 28
9869 12336 12337 28
9870 12336 12338 28
9871 12336 12339 28
9872 12336 12340 28
9873 12341 12342 28
9874 12341 12343 28
9875 12341 12344 28
9876 12341 12345 28
9877 12346 12347 28
9878 12346 12348 28
9879 12346 12349 28
9880 12346 12350 28
9881 12351 12352 28
9882 12351 12353 28
9883 12351 12354 28
9884 12351 12355 28
9885 12356 12357 28
9886 12356 12358 28
9887 12356 12359 28
9888 12356 12360 28
9889 12361 12362 28
9890 12361 12363 28
9891 12361 12364 28
9892 12361 12365 28
9893 12366 12367 28
9894 12366 12368 28
9895 12366 12369 28
9896 12366 12370 28
9897 12371 12372 28
9898 12371 12373 28
9899 12371 12374 28
9900 12371 12375 28
9901 12376 12377 28
9902 12376 12378 28
9903 12376 12379 28
9904 12376 12380 28
9905 12381 12382 28
9906 12381 12383 28
9907 12381 12384 28
9908 12381 12385 28
9909 12386 12387 28
9910 12386 12388 28
9911 12386 12389 28
9912 12386 12390 28
9913 12391 12392 28
9914 12391 12393 28
9915 12391 12394 28
9916 12391 12395 28
9917 12396 12397 28
9918 12396 12398 28
9919 12396 12399 28
9920 12396 12400 28
9921 12401 12402 28
9922 12401 12403 28
9923 12401 12404 28
9924 12401 12405 28
9925 12406 12407 28
9926 12406 12408 28
9927 12406 12409 28
9928 12406 12410 28
9929 12411 12412 28
9930 12411 12413 28
9931 12411 12414 28
9932 12411 12415 28
9933 12416 12417 28
9934 12416 12418 28
9935 12416 12419 28
9936 12416 12420 28
9937 12421 12422 28
9938 12421 12423 28
9939 12421 12424 28
9940 12421 12425 28
9941 12426 12427 28
9942 12426 12428 28
9943 12426 12429 28
9944 12426 12430 28
9945 12431 12432 28
9946 12431 12433 28
9947 12431 12434 28
9948 12431 12435 28
9949 12436 12437 28
9950 12436 12438 28
9951 12436 12439 28
9952 12436 12440 28
9953 12441 12442 28
9954 12441 12443 28
9955 12441 12444 28
9956 12441 12445 28
9957 12446 12447 28
9958 12446 12448 28
9959 12446 12449 28
9960 12446 12450 28
9961 12451 12452 28
9962 12451 12453 28
9963 12451 12454 28
9964 12451 12455 28
9965 12456 12457 28
9966 12456 12458 28
9967 12456 12459 28
9968 12456 12460 28
9969 12461 12462 28
9970 12461 12463 28
9971 12461 12464 28
9972 12461 12465 28
9973 12466 12467 28
9974 12466 12468 28
9975 12466 12469 28
9976 12466 12470 28
9977 12471 12472 28
9978 12471 12473 28
9979 12471 12474 28
9980 12471 12475 28
9981 12476 12477 28
9982 12476 12478 28
9983 12476 12479 28
9984 12476 12480 28
9985 12481 12482 28
9986 12481 12483 28
9987 12481 12484 28
9988 12481 12485 28
9989 12486 12487 28
9990 12486 12488 28
9991 12486 12489 28
9992 12486 12490 28
9993 12491 12492 28
9994 12491 12493 28
9995 12491 12494 28
9996 12491 12495 28
9997 12496 12497 28
9998 12496 12498 28
9999 12496 12499 28
10000 12496 12500 28
10001 12501 12502 28
10002 12501 12503 28
10003 12501 12504 28
10004 12501 12505 28
10005 12506 12507 28
10006 12506 12508 28
10007 12506 12509 28
10008 12506 12510 28
10009 12511 12512 28
10010 12511 12513 28
10011 12511 12514 28
10012 12511 12515 28
10013 12516 12517 28
10014 12516 12518 28
10015 12516 12519 28
10016 12516 12520 28
10017 12521 12522 28
10018 12521 12523 28
10019 12521 12524 28
10020 12521 12525 28
10021 12526 12527 28
10022 12526 12528 28
10023 12526 12529 28
10024 12526 12530 28
10025 12531 12532 28
10026 12531 12533 28
10027 12531 12534 28
10028 12531 12535 28
10029 12536 12537 28
10030 12536 12538 28
10031 12536 12539 28
10032 12536 12540 28
10033 12541 12542 28
10034 12541 12543 28
10035 12541 12544 28
10036 12541 12545 28
10037 12546 12547 28
10038 12546 12548 28
10039 12546 12549 28
10040 12546 12550 28
10041 12551 12552 28
10042 12551 12553 28
10043 12551 12554 28
10044 12551 12555 28
10045 12556 12557 28
10046 12556 12558 28
10047 12556 12559 28
10048 12556 12560 28
10049 12561 12562 28
10050 12561 12563 28
10051 12561 12564 28
10052 12561 12565 28
10053 12566 12567 28
10054 12566 12568 28
10055 12566 12569 28
10056 12566 12570 28
10057 12571 12572 28
10058 12571 12573 28
10059 12571 12574 28
10060 12571 12575 28
10061 12576 12577 28
10062 12576 12578 28
10063 12576 12579 28
10064 12576 12580 28
10065 12581 12582 28
10066 12581 12583 28
10067 12581 12584 28
10068 12581 12585 28
10069 12586 12587 28
10070 12586 12588 28
10071 12586 12589 28
10072 12586 12590 28
10073 12591 12592 28
10074 12591 12593 28
10075 12591 12594 28
10076 12591 12595 28
10077 12596 12597 28
10078 12596 12598 28
10079 12596 12599 28
10080 12596 12600 28
10081 12601 12602 28
10082 12601 12603 28
10083 12601 12604 28
10084 12601 12605 28
10085 12606 12607 28
10086 12606 12608 28
10087 12606 12609 28
10088 12606 12610 28
10089 12611 12612 28
10090 12611 12613 28
10091 12611 12614 28
10092 12611 12615 28
10093 12616 12617 28
10094 12616 12618 28
10095 12616 12619 28
10096 12616 12620 28
10097 12621 12622 28
10098 12621 12623 28
10099 12621 12624 28
10100 12621 12625 28
10101 12626 12627 28
10102 12626 12628 28
10103 12626 12629 28
10104 12626 12630 28
10105 12631 12632 28
10106 12631 12633 28
10107 12631 12634 28
10108 12631 12635 28
10109 12636 12637 28
10110 12636 12638 28
10111 12636 12639 28
10112 12636 12640 28
10113 12641 12642 28
10114 12641 12643 28
10115 12641 12644 28
10116 12641 12645 28
10117 12646 12647 28
10118 12646 12648 28
10119 12646 12649 28
10120 12646 12650 28
10121 12651 12652 28
10122 12651 12653 28
10123 12651 12654 28
10124 12651 12655 28
10125 12656 12657 28
10126 12656 12658 28
10127 12656 12659 28
10128 12656 12660 28
10129 12661 12662 28
10130 12661 12663 28
10131 12661 12664 28
10132 12661 12665 28
10133 12666 12667 28
10134 12666 12668 28
10135 12666 12669 28
10136 12666 12670 28
10137 12671 12672 28
10138 12671 12673 28
10139 12671 12674 28
10140 12671 12675 28
10141 12676 12677 28
10142 12676 12678 28
10143 12676 12679 28
10144 12676 12680 28
10145 12681 12682 28
10146 12681 12683 28
10147 12681 12684 28
10148 12681 12685 28
10149 12686 12687 28
10150 12686 12688 28
10151 12686 12689 28
10152 12686 12690 28
10153 12691 12692 28
10154 12691 12693 28
10155 12691 12694 28
10156 12691 12695 28
10157 12696 12697 28
10158 12696 12698 28
10159 12696 12699 28
10160 12696 12700 28
10161 12701 12702 28
10162 12701 12703 28
10163 12701 12704 28
10164 12701 12705 28
10165 12706 12707 28
10166 12706 12708 28
10167 12706 12709 28
10168 12706 12710 28
10169 12711 12712 28
10170 12711 12713 28
10171 12711 12714 28
10172 12711 12715 28
10173 12716 12717 28
10174 12716 12718 28
10175 12716 12719 28
10176 12716 12720 28
10177 12721 12722 28
10178 12721 12723 28
10179 12721 12724 28
10180 12721 12725 28
10181 12726 12727 28
10182 12726 12728 28
10183 12726 12729 28
10184 12726 12730 28
10185 12731 12732 28
10186 12731 12733 28
10187 12731 12734 28
10188 12731 12735 28
10189 12736 12737 28
10190 12736 12738 28
10191 12736 12739 28
10192 12736 12740 28
10193 12741 12742 28
10194 12741 12743 28
10195 12741 12744 28
10196 12741 12745 28
10197 12746 12747 28
10198 12746 12748 28
10199 12746 12749 28
10200 12746 12750 28
10201 12751 12752 28
10202 12751 12753 28
10203 12751 12754 28
10204 12751 12755 28
10205 12756 12757 28
10206 12756 12758 28
10207 12756 12759 28
10208 12756 12760 28
10209 12761 12762 28
10210 12761 12763 28
10211 12761 12764 28
10212 12761 12765 28
10213 12766 12767 28
10214 12766 12768 28
10215 12766 12769 28
10216 12766 12770 28
10217 12771 12772 28
10218 12771 12773 28
10219 12771 12774 28
10220 12771 12775 28
10221 12776 12777 28
10222 12776 12778 28
10223 12776 12779 28
10224 12776 12780 28
10225 12781 12782 28
10226 12781 12783 28
10227 12781 12784 28
10228 12781 12785 28
10229 12786 12787 28
10230 12786 12788 28
10231 12786 12789 28
10232 12786 12790 28
10233 12791 12792 28
10234 12791 12793 28
10235 12791 12794 28
10236 12791 12795 28
10237 12796 12797 28
10238 12796 12798 28
10239 12796 12799 28
10240 12796 12800 28
10241 12801 12802 28
10242 12801 12803 28
10243 12801 12804 28
10244 12801 12805 28
10245 12806 12807 28
10246 12806 12808 28
10247 12806 12809 28
10248 12806 12810 28
10249 12811 12812 28
10250 12811 12813 28
10251 12811 12814 28
10252 12811 12815 28
10253 12816 12817 28
10254 12816 12818 28
10255 12816 12819 28
10256 12816 12820 28
10257 12821 12822 28
10258 12821 12823 28
10259 12821 12824 28
10260 12821 12825 28
10261 12826 12827 28
10262 12826 12828 28
10263 12826 12829 28
10264 12826 12830 28
10265 12831 12832 28
10266 12831 12833 28
10267 12831 12834 28
10268 12831 12835 28
10269 12836 12837 28
10270 12836 12838 28
10271 12836 12839 28
10272 12836 12840 28
10273 12841 12842 28
10274 12841 12843 28
10275 12841 12844 28
10276 12841 12845 28
10277 12846 12847 28
10278 12846 12848 28
10279 12846 12849 28
10280 12846 12850 28
10281 12851 12852 28
10282 12851 12853 28
10283 12851 12854 28
10284 12851 12855 28
10285 12856 12857 28
10286 12856 12858 28
10287 12856 12859 28
10288 12856 12860 28
10289 12861 12862 28
10290 12861 12863 28
10291 12861 12864 28
10292 12861 12865 28
10293 12866 12867 28
10294 12866 12868 28
10295 12866 12869 28
10296 12866 12870 28
10297 12871 12872 28
10298 12871 12873 28
10299 12871 12874 28
10300 12871 12875 28
10301 12876 12877 28
10302 12876 12878 28
10303 12876 12879 28
10304 12876 12880 28
10305 12881 12882 28
10306 12881 12883 28
10307 12881 12884 28
10308 12881 12885 28
10309 12886 12887 28
10310 12886 12888 28
10311 12886 12889 28
10312 12886 12890 28
10313 12891 12892 28
10314 12891 12893 28
10315 12891 12894 28
10316 12891 12895 28
10317 12896 12897 28
10318 12896 12898 28
10319 12896 12899 28
10320 12896 12900 28
10321 12901 12902 28
10322 12901 12903 28
10323 12901 12904 28
10324 12901 12905 28
10325 12906 12907 28
10326 12906 12908 28
10327 12906 12909 28
10328 12906 12910 28
10329 12911 12912 28
10330 12911 12913 28
10331 12911 12914 28
10332 12911 12915 28
10333 12916 12917 28
10334 12916 12918 28
10335 12916 12919 28
10336 12916 12920 28
10337 12921 12922 28
10338 12921 12923 28
10339 12921 12924 28
10340 12921 12925 28
10341 12926 12927 28
10342 12926 12928 28
10343 12926 12929 28
10344 12926 12930 28
10345 12931 12932 28
10346 12931 12933 28
10347 12931 12934 28
10348 12931 12935 28
10349 12936 12937 28
10350 12936 12938 28
10351 12936 12939 28
10352 12936 12940 28
10353 12941 12942 28
10354 12941 12943 28
10355 12941 12944 28
10356 12941 12945 28
10357 12946 12947 28
10358 12946 12948 28
10359 12946 12949 28
10360 12946 12950 28
10361 12951 12952 28
10362 12951 12953 28
10363 12951 12954 28
10364 12951 12955 28
10365 12956 12957 28
10366 12956 12958 28
10367 12956 12959 28
10368 12956 12960 28
10369 12961 12962 28
10370 12961 12963 28
10371 12961 12964 28
10372 12961 12965 28
10373 12966 12967 28
10374 12966 12968 28
10375 12966 12969 28
10376 12966 12970 28
10377 12971 12972 28
10378 12971 12973 28
10379 12971 12974 28
10380 12971 12975 28
10381 12976 12977 28
10382 12976 12978 28
10383 12976 12979 28
10384 12976 12980 28
10385 12981 12982 28
10386 12981 12983 28
10387 12981 12984 28
10388 12981 12985 28
10389 12986 12987 28
10390 12986 12988 28
10391 12986 12989 28
10392 12986 12990 28
10393 12991 12992 28
10394 12991 12993 28
10395 12991 12994 28
10396 12991 12995 28
10397 12996 12997 28
10398 12996 12998 28
10399 12996 12999 28
10400 12996 13000 28
10401 13001 13002 28
10402 13001 13003 28
10403 13001 13004 28
10404 13001 13005 28
10405 13006 13007 28
10406 13006 13008 28
10407 13006 13009 28
10408 13006 13010 28
10409 13011 13012 28
10410 13011 13013 28
10411 13011 13014 28
10412 13011 13015 28
10413 13016 13017 28
10414 13016 13018 28
10415 13016 13019 28
10416 13016 13020 28
10417 13021 13022 28
10418 13021 13023 28
10419 13021 13024 28
10420 13021 13025 28
10421 13026 13027 28
10422 13026 13028 28
10423 13026 13029 28
10424 13026 13030 28
10425 13031 13032 28
10426 13031 13033 28
10427 13031 13034 28
10428 13031 13035 28
10429 13036 13037 28
10430 13036 13038 28
10431 13036 13039 28
10432 13036 13040 28
10433 13041 13042 28
10434 13041 13043 28
10435 13041 13044 28
10436 13041 13045 28
10437 13046 13047 28
10438 13046 13048 28
10439 13046 13049 28
10440 13046 13050 28
10441 13051 13052 28
10442 13051 13053 28
10443 13051 13054 28
10444 13051 13055 28
10445 13056 13057 28
10446 13056 13058 28
10447 13056 13059 28
10448 13056 13060 28
10449 13061 13062 28
10450 13061 13063 28
10451 13061 13064 28
10452 13061 13065 28
10453 13066 13067 28
10454 13066 13068 28
10455 13066 13069 28
10456 13066 13070 28
10457 13071 13072 28
10458 13071 13073 28
10459 13071 13074 28
10460 13071 13075 28
10461 13076 13077 28
10462 13076 13078 28
10463 13076 13079 28
10464 13076 13080 28
10465 13081 13082 28
10466 13081 13083 28
10467 13081 13084 28
10468 13081 13085 28
10469 13086 13087 28
10470 13086 13088 28
10471 13086 13089 28
10472 13086 13090 28
10473 13091 13092 28
10474 13091 13093 28
10475 13091 13094 28
10476 13091 13095 28
10477 13096 13097 28
10478 13096 13098 28
10479 13096 13099 28
10480 13096 13100 28
10481 13101 13102 28
10482 13101 13103 28
10483 13101 13104 28
10484 13101 13105 28
10485 13106 13107 28
10486 13106 13108 28
10487 13106 13109 28
10488 13106 13110 28
10489 13111 13112 28
10490 13111 13113 28
10491 13111 13114 28
10492 13111 13115 28
10493 13116 13117 28
10494 13116 13118 28
10495 13116 13119 28
10496 13116 13120 28
10497 13121 13122 28
10498 13121 13123 28
10499 13121 13124 28
10500 13121 13125 28
10501 13126 13127 28
10502 13126 13128 28
10503 13126 13129 28
10504 13126 13130 28
10505 13131 13132 28
10506 13131 13133 28
10507 13131 13134 28
10508 13131 13135 28
10509 13136 13137 28
10510 13136 13138 28
10511 13136 13139 28
10512 13136 13140 28
10513 13141 13142 28
10514 13141 13143 28
10515 13141 13144 28
10516 13141 13145 28
10517 13146 13147 28
10518 13146 13148 28
10519 13146 13149 28
10520 13146 13150 28
10521 13151 13152 28
10522 13151 13153 28
10523 13151 13154 28
10524 13151 13155 28
10525 13156 13157 28
10526 13156 13158 28
10527 13156 13159 28
10528 13156 13160 28
10529 13161 13162 28
10530 13161 13163 28
10531 13161 13164 28
10532 13161 13165 28
10533 13166 13167 28
10534 13166 13168 28
10535 13166 13169 28
10536 13166 13170 28
10537 13171 13172 28
10538 13171 13173 28
10539 13171 13174 28
10540 13171 13175 28
10541 13176 13177 28
10542 13176 13178 28
10543 13176 13179 28
10544 13176 13180 28
10545 13181 13182 28
10546 13181 13183 28
10547 13181 13184 28
10548 13181 13185 28
10549 13186 13187 28
10550 13186 13188 28
10551 13186 13189 28
10552 13186 13190 28
10553 13191 13192 28
10554 13191 13193 28
10555 13191 13194 28
10556 13191 13195 28
10557 13196 13197 28
10558 13196 13198 28
10559 13196 13199 28
10560 13196 13200 28
10561 13201 13202 28
10562 13201 13203 28
10563 13201 13204 28
10564 13201 13205 28
10565 13206 13207 28
10566 13206 13208 28
10567 13206 13209 28
10568 13206 13210 28
10569 13211 13212 28
10570 13211 13213 28
10571 13211 13214 28
10572 13211 13215 28
10573 13216 13217 28
10574 13216 13218 28
10575 13216 13219 28
10576 13216 13220 28
10577 13221 13222 28
10578 13221 13223 28
10579 13221 13224 28
10580 13221 13225 28
10581 13226 13227 28
10582 13226 13228 28
10583 13226 13229 28
10584 13226 13230 28
10585 13231 13232 28
10586 13231 13233 28
10587 13231 13234 28
10588 13231 13235 28
10589 13236 13237 28
10590 13236 13238 28
10591 13236 13239 28
10592 13236 13240 28
10593 13241 13242 28
10594 13241 13243 28
10595 13241 13244 28
10596 13241 13245 28
10597 13246 13247 28
10598 13246 13248 28
10599 13246 13249 28
10600 13246 13250 28
10601 13251 13252 28
10602 13251 13253 28
10603 13251 13254 28
10604 13251 13255 28
10605 13256 13257 28
10606 13256 13258 28
10607 13256 13259 28
10608 13256 13260 28
10609 13261 13262 28
10610 13261 13263 28
10611 13261 13264 28
10612 13261 13265 28
10613 13266 13267 28
10614 13266 13268 28
10615 13266 13269 28
10616 13266 13270 28
10617 13271 13272 28
10618 13271 13273 28
10619 13271 13274 28
10620 13271 13275 28
10621 13276 13277 28
10622 13276 13278 28
10623 13276 13279 28
10624 13276 13280 28
10625 13281 13282 28
10626 13281 13283 28
10627 13281 13284 28
10628 13281 13285 28
10629 13286 13287 28
10630 13286 13288 28
10631 13286 13289 28
10632 13286 13290 28
10633 13291 13292 28
10634 13291 13293 28
10635 13291 13294 28
10636 13291 13295 28
10637 13296 13297 28
10638 13296 13298 28
10639 13296 13299 28
10640 13296 13300 28
10641 13301 13302 28
10642 13301 13303 28
10643 13301 13304 28
10644 13301 13305 28
10645 13306 13307 28
10646 13306 13308 28
10647 13306 13309 28
10648 13306 13310 28
10649 13311 13312 28
10650 13311 13313 28
10651 13311 13314 28
10652 13311 13315 28
10653 13316 13317 28
10654 13316 13318 28
10655 13316 13319 28
10656 13316 13320 28
10657 13321 13322 28
10658 13321 13323 28
10659 13321 13324 28
10660 13321 13325 28
10661 13326 13327 28
10662 13326 13328 28
10663 13326 13329 28
10664 13326 13330 28
10665 13331 13332 28
10666 13331 13333 28
10667 13331 13334 28
10668 13331 13335 28
10669 13336 13337 28
10670 13336 13338 28
10671 13336 13339 28
10672 13336 13340 28
10673 13341 13342 28
10674 13341 13343 28
10675 13341 13344 28
10676 13341 13345 28
10677 13346 13347 28
10678 13346 13348 28
10679 13346 13349 28
10680 13346 13350 28
10681 13351 13352 28
10682 13351 13353 28
10683 13351 13354 28
10684 13351 13355 28
10685 13356 13357 28
10686 13356 13358 28
10687 13356 13359 28
10688 13356 13360 28
10689 13361 13362 28
10690 13361 13363 28
10691 13361 13364 28
10692 13361 13365 28
10693 13366 13367 28
10694 13366 13368 28
10695 13366 13369 28
10696 13366 13370 28
10697 13371 13372 28
10698 13371 13373 28
10699 13371 13374 28
10700 13371 13375 28
10701 13376 13377 28
10702 13376 13378 28
10703 13376 13379 28
10704 13376 13380 28
10705 13381 13382 28
10706 13381 13383 28
10707 13381 13384 28
10708 13381 13385 28
10709 13386 13387 28
10710 13386 13388 28
10711 13386 13389 28
10712 13386 13390 28
10713 13391 13392 28
10714 13391 13393 28
10715 13391 13394 28
10716 13391 13395 28
10717 13396 13397 28
10718 13396 13398 28
10719 13396 13399 28
10720 13396 13400 28
10721 13401 13402 28
10722 13401 13403 28
10723 13401 13404 28
10724 13401 13405 28
10725 13406 13407 28
10726 13406 13408 28
10727 13406 13409 28
10728 13406 13410 28
10729 13411 13412 28
10730 13411 13413 28
10731 13411 13414 28
10732 13411 13415 28
10733 13416 13417 28
10734 13416 13418 28
10735 13416 13419 28
10736 13416 13420 28
10737 13421 13422 28
10738 13421 13423 28
10739 13421 13424 28
10740 13421 13425 28
10741 13426 13427 28
10742 13426 13428 28
10743 13426 13429 28
10744 13426 13430 28
10745 13431 13432 28
10746 13431 13433 28
10747 13431 13434 28
10748 13431 13435 28
10749 13436 13437 28
10750 13436 13438 28
10751 13436 13439 28
10752 13436 13440 28
10753 13441 13442 28
10754 13441 13443 28
10755 13441 13444 28
10756 13441 13445 28
10757 13446 13447 28
10758 13446 13448 28
10759 13446 13449 28
10760 13446 13450 28
10761 13451 13452 28
10762 13451 13453 28
10763 13451 13454 28
10764 13451 13455 28
10765 13456 13457 28
10766 13456 13458 28
10767 13456 13459 28
10768 13456 13460 28
10769 13461 13462 28
10770 13461 13463 28
10771 13461 13464 28
10772 13461 13465 28
10773 13466 13467 28
10774 13466 13468 28
10775 13466 13469 28
10776 13466 13470 28
10777 13471 13472 28
10778 13471 13473 28
10779 13471 13474 28
10780 13471 13475 28
10781 13476 13477 28
10782 13476 13478 28
10783 13476 13479 28
10784 13476 13480 28
10785 13481 13482 28
10786 13481 13483 28
10787 13481 13484 28
10788 13481 13485 28
10789 13486 13487 28
10790 13486 13488 28
10791 13486 13489 28
10792 13486 13490 28
10793 13491 13492 28
10794 13491 13493 28
10795 13491 13494 28
10796 13491 13495 28
10797 13496 13497 28
10798 13496 13498 28
10799 13496 13499 28
10800 13496 13500 28
10801 13501 13502 28
10802 13501 13503 28
10803 13501 13504 28
10804 13501 13505 28
10805 13506 13507 28
10806 13506 13508 28
10807 13506 13509 28
10808 13506 13510 28
10809 13511 13512 28
10810 13511 13513 28
10811 13511 13514 28
10812 13511 13515 28
10813 13516 13517 28
10814 13516 13518 28
10815 13516 13519 28
10816 13516 13520 28
10817 13521 13522 28
10818 13521 13523 28
10819 13521 13524 28
10820 13521 13525 28
10821 13526 13527 28
10822 13526 13528 28
10823 13526 13529 28
10824 13526 13530 28
10825 13531 13532 28
10826 13531 13533 28
10827 13531 13534 28
10828 13531 13535 28
10829 13536 13537 28
10830 13536 13538 28
10831 13536 13539 28
10832 13536 13540 28
10833 13541 13542 28
10834 13541 13543 28
10835 13541 13544 28
10836 13541 13545 28
10837 13546 13547 28
10838 13546 13548 28
10839 13546 13549 28
10840 13546 13550 28
10841 13551 13552 28
10842 13551 13553 28
10843 13551 13554 28
10844 13551 13555 28
10845 13556 13557 28
10846 13556 13558 28
10847 13556 13559 28
10848 13556 13560 28
10849 13561 13562 28
10850 13561 13563 28
10851 13561 13564 28
10852 13561 13565 28
10853 13566 13567 28
10854 13566 13568 28
10855 13566 13569 28
10856 13566 13570 28
10857 13571 13572 28
10858 13571 13573 28
10859 13571 13574 28
10860 13571 13575 28
10861 13576 13577 28
10862 13576 13578 28
10863 13576 13579 28
10864 13576 13580 28
10865 13581 13582 28
10866 13581 13583 28
10867 13581 13584 28
10868 13581 13585 28
10869 13586 13587 28
10870 13586 13588 28
10871 13586 13589 28
10872 13586 13590 28
10873 13591 13592 28
10874 13591 13593 28
10875 13591 13594 28
10876 13591 13595 28
10877 13596 13597 28
10878 13596 13598 28
10879 13596 13599 28
10880 13596 13600 28
10881 13601 13602 28
10882 13601 13603 28
10883 13601 13604 28
10884 13601 13605 28
10885 13606 13607 28
10886 13606 13608 28
10887 13606 13609 28
10888 13606 13610 28
10889 13611 13612 28
10890 13611 13613 28
10891 13611 13614 28
10892 13611 13615 28
10893 13616 13617 28
10894 13616 13618 28
10895 13616 13619 28
10896 13616 13620 28
10897 13621 13622 28
10898 13621 13623 28
10899 13621 13624 28
10900 13621 13625 28
10901 13626 13627 28
10902 13626 13628 28
10903 13626 13629 28
10904 13626 13630 28
10905 13631 13632 28
10906 13631 13633 28
10907 13631 13634 28
10908 13631 13635 28
10909 13636 13637 28
10910 13636 13638 28
10911 13636 13639 28
10912 13636 13640 28
10913 13641 13642 28
10914 13641 13643 28
10915 13641 13644 28
10916 13641 13645 28
10917 13646 13647 28
10918 13646 13648 28
10919 13646 13649 28
10920 13646 13650 28
10921 13651 13652 28
10922 13651 13653 28
10923 13651 13654 28
10924 13651 13655 28
10925 13656 13657 28
10926 13656 13658 28
10927 13656 13659 28
10928 13656 13660 28
10929 13661 13662 28
10930 13661 13663 28
10931 13661 13664 28
10932 13661 13665 28
10933 13666 13667 28
10934 13666 13668 28
10935 13666 13669 28
10936 13666 13670 28
10937 13671 13672 28
10938 13671 13673 28
10939 13671 13674 28
10940 13671 13675 28
10941 13676 13677 28
10942 13676 13678 28
10943 13676 13679 28
10944 13676 13680 28
10945 13681 13682 28
10946 13681 13683 28
10947 13681 13684 28
10948 13681 13685 28
10949 13686 13687 28
10950 13686 13688 28
10951 13686 13689 28
10952 13686 13690 28
10953 13691 13692 28
10954 13691 13693 28
10955 13691 13694 28
10956 13691 13695 28
10957 13696 13697 28
10958 13696 13698 28
10959 13696 13699 28
10960 13696 13700 28
10961 13701 13702 28
10962 13701 13703 28
10963 13701 13704 28
10964 13701 13705 28
10965 13706 13707 28
10966 13706 13708 28
10967 13706 13709 28
10968 13706 13710 28
10969 13711 13712 28
10970 13711 13713 28
10971 13711 13714 28
10972 13711 13715 28
10973 13716 13717 28
10974 13716 13718 28
10975 13716 13719 28
10976 13716 13720 28
10977 13721 13722 28
10978 13721 13723 28
10979 13721 13724 28
10980 13721 13725 28
10981 13726 13727 28
10982 13726 13728 28
10983 13726 13729 28
10984 13726 13730 28
10985 13731 13732 28
10986 13731 13733 28
10987 13731 13734 28
10988 13731 13735 28
10989 13736 13737 28
10990 13736 13738 28
10991 13736 13739 28
10992 13736 13740 28
10993 13741 13742 28
10994 13741 13743 28
10995 13741 13744 28
10996 13741 13745 28
10997 13746 13747 28
10998 13746 13748 28
10999 13746 13749 28
11000 13746 13750 28
11001 13751 13752 28
11002 13751 13753 28
11003 13751 13754 28
11004 13751 13755 28
11005 13756 13757 28
11006 13756 13758 28
11007 13756 13759 28
11008 13756 13760 28
11009 13761 13762 28
11010 13761 13763 28
11011 13761 13764 28
11012 13761 13765 28
11013 13766 13767 28
11014 13766 13768 28
11015 13766 13769 28
11016 13766 13770 28
11017 13771 13772 28
11018 13771 13773 28
11019 13771 13774 28
11020 13771 13775 28
11021 13776 13777 28
11022 13776 13778 28
11023 13776 13779 28
11024 13776 13780 28
11025 13781 13782 28
11026 13781 13783 28
11027 13781 13784 28
11028 13781 13785 28
11029 13786 13787 28
11030 13786 13788 28
11031 13786 13789 28
11032 13786 13790 28
11033 13791 13792 28
11034 13791 13793 28
11035 13791 13794 28
11036 13791 13795 28
11037 13796 13797 28
11038 13796 13798 28
11039 13796 13799 28
11040 13796 13800 28
11041 13801 13802 28
11042 13801 13803 28
11043 13801 13804 28
11044 13801 13805 28
11045 13806 13807 28
11046 13806 13808 28
11047 13806 13809 28
11048 13806 13810 28
11049 13811 13812 28
11050 13811 13813 28
11051 13811 13814 28
11052 13811 13815 28
11053 13816 13817 28
11054 13816 13818 28
11055 13816 13819 28
11056 13816 13820 28
11057 13821 13822 28
11058 13821 13823 28
11059 13821 13824 28
11060 13821 13825 28
11061 13826 13827 28
11062 13826 13828 28
11063 13826 13829 28
11064 13826 13830 28
11065 13831 13832 28
11066 13831 13833 28
11067 13831 13834 28
11068 13831 13835 28
11069 13836 13837 28
11070 13836 13838 28
11071 13836 13839 28
11072 13836 13840 28
11073 13841 13842 28
11074 13841 13843 28
11075 13841 13844 28
11076 13841 13845 28
11077 13846 13847 28
11078 13846 13848 28
11079 13846 13849 28
11080 13846 13850 28
11081 13851 13852 28
11082 13851 13853 28
11083 13851 13854 28
11084 13851 13855 28
11085 13856 13857 28
11086 13856 13858 28
11087 13856 13859 28
11088 13856 13860 28
11089 13861 13862 28
11090 13861 13863 28
11091 13861 13864 28
11092 13861 13865 28
11093 13866 13867 28
11094 13866 13868 28
11095 13866 13869 28
11096 13866 13870 28
11097 13871 13872 28
11098 13871 13873 28
11099 13871 13874 28
11100 13871 13875 28
11101 13876 13877 28
11102 13876 13878 28
11103 13876 13879 28
11104 13876 13880 28
11105 13881 13882 28
11106 13881 13883 28
11107 13881 13884 28
11108 13881 13885 28
11109 13886 13887 28
11110 13886 13888 28
11111 13886 13889 28
11112 13886 13890 28
11113 13891 13892 28
11114 13891 13893 28
11115 13891 13894 28
11116 13891 13895 28
11117 13896 13897 28
11118 13896 13898 28
11119 13896 13899 28
11120 13896 13900 28
11121 13901 13902 28
11122 13901 13903 28
11123 13901 13904 28
11124 13901 13905 28
11125 13906 13907 28
11126 13906 13908 28
11127 13906 13909 28
11128 13906 13910 28
11129 13911 13912 28
11130 13911 13913 28
11131 13911 13914 28
11132 13911 13915 28
11133 13916 13917 28
11134 13916 13918 28
11135 13916 13919 28
11136 13916 13920 28
11137 13921 13922 28
11138 13921 13923 28
11139 13921 13924 28
11140 13921 13925 28
11141 13926 13927 28
11142 13926 13928 28
11143 13926 13929 28
11144 13926 13930 28
11145 13931 13932 28
11146 13931 13933 28
11147 13931 13934 28
11148 13931 13935 28
11149 13936 13937 28
11150 13936 13938 28
11151 13936 13939 28
11152 13936 13940 28
11153 13941 13942 28
11154 13941 13943 28
11155 13941 13944 28
11156 13941 13945 28
11157 13946 13947 28
11158 13946 13948 28
11159 13946 13949 28
11160 13946 13950 28
11161 13951 13952 28
11162 13951 13953 28
11163 13951 13954 28
11164 13951 13955 28
11165 13956 13957 28
11166 13956 13958 28
11167 13956 13959 28
11168 13956 13960 28
11169 13961 13962 28
11170 13961 13963 28
11171 13961 13964 28
11172 13961 13965 28
11173 13966 13967 28
11174 13966 13968 28
11175 13966 13969 28
11176 13966 13970 28
11177 13971 13972 28
11178 13971 13973 28
11179 13971 13974 28
11180 13971 13975 28
11181 13976 13977 28
11182 13976 13978 28
11183 13976 13979 28
11184 13976 13980 28
11185 13981 13982 28
11186 13981 13983 28
11187 13981 13984 28
11188 13981 13985 28
11189 13986 13987 28
11190 13986 13988 28
11191 13986 13989 28
11192 13986 13990 28
11193 13991 13992 28
11194 13991 13993 28
11195 13991 13994 28
11196 13991 13995 28
11197 13996 13997 28
11198 13996 13998 28
11199 13996 13999 28
11200 13996 14000 28
11201 14001 14002 28
11202 14001 14003 28
11203 14001 14004 28
11204 14001 14005 28
11205 14006 14007 28
11206 14006 14008 28
11207 14006 14009 28
11208 14006 14010 28
11209 14011 14012 28
11210 14011 14013 28
11211 14011 14014 28
11212 14011 14015 28
11213 14016 14017 28
11214 14016 14018 28
11215 14016 14019 28
11216 14016 14020 28
11217 14021 14022 28
11218 14021 14023 28
11219 14021 14024 28
11220 14021 14025 28
11221 14026 14027 28
11222 14026 14028 28
11223 14026 14029 28
11224 14026 14030 28
11225 14031 14032 28
11226 14031 14033 28
11227 14031 14034 28
11228 14031 14035 28
11229 14036 14037 28
11230 14036 14038 28
11231 14036 14039 28
11232 14036 14040 28
11233 14041 14042 28
11234 14041 14043 28
11235 14041 14044 28
11236 14041 14045 28
11237 14046 14047 28
11238 14046 14048 28
11239 14046 14049 28
11240 14046 14050 28
11241 14051 14052 28
11242 14051 14053 28
11243 14051 14054 28
11244 14051 14055 28
11245 14056 14057 28
11246 14056 14058 28
11247 14056 14059 28
11248 14056 14060 28
11249 14061 14062 28
11250 14061 14063 28
11251 14061 14064 28
11252 14061 14065 28
11253 14066 14067 28
11254 14066 14068 28
11255 14066 14069 28
11256 14066 14070 28
11257 14071 14072 28
11258 14071 14073 28
11259 14071 14074 28
11260 14071 14075 28
11261 14076 14077 28
11262 14076 14078 28
11263 14076 14079 28
11264 14076 14080 28
11265 14081 14082 28
11266 14081 14083 28
11267 14081 14084 28
11268 14081 14085 28
11269 14086 14087 28
11270 14086 14088 28
11271 14086 14089 28
11272 14086 14090 28
11273 14091 14092 28
11274 14091 14093 28
11275 14091 14094 28
11276 14091 14095 28
11277 14096 14097 28
11278 14096 14098 28
11279 14096 14099 28
11280 14096 14100 28
11281 14101 14102 28
11282 14101 14103 28
11283 14101 14104 28
11284 14101 14105 28
11285 14106 14107 28
11286 14106 14108 28
11287 14106 14109 28
11288 14106 14110 28
11289 14111 14112 28
11290 14111 14113 28
11291 14111 14114 28
11292 14111 14115 28
11293 14116 14117 28
11294 14116 14118 28
11295 14116 14119 28
11296 14116 14120 28
11297 14121 14122 28
11298 14121 14123 28
11299 14121 14124 28
11300 14121 14125 28
11301 14126 14127 28
11302 14126 14128 28
11303 14126 14129 28
11304 14126 14130 28
11305 14131 14132 28
11306 14131 14133 28
11307 14131 14134 28
11308 14131 14135 28
11309 14136 14137 28
11310 14136 14138 28
11311 14136 14139 28
11312 14136 14140 28
11313 14141 14142 28
11314 14141 14143 28
11315 14141 14144 28
11316 14141 14145 28
11317 14146 14147 28
11318 14146 14148 28
11319 14146 14149 28
11320 14146 14150 28
11321 14151 14152 28
11322 14151 14153 28
11323 14151 14154 28
11324 14151 14155 28
11325 14156 14157 28
11326 14156 14158 28
11327 14156 14159 28
11328 14156 14160 28
11329 14161 14162 28
11330 14161 14163 28
11331 14161 14164 28
11332 14161 14165 28
11333 14166 14167 28
11334 14166 14168 28
11335 14166 14169 28
11336 14166 14170 28
11337 14171 14172 28
11338 14171 14173 28
11339 14171 14174 28
11340 14171 14175 28
11341 14176 14177 28
11342 14176 14178 28
11343 14176 14179 28
11344 14176 14180 28
11345 14181 14182 28
11346 14181 14183 28
11347 14181 14184 28
11348 14181 14185 28
11349 14186 14187 28
11350 14186 14188 28
11351 14186 14189 28
11352 14186 14190 28
11353 14191 14192 28
11354 14191 14193 28
11355 14191 14194 28
11356 14191 14195 28
11357 14196 14197 28
11358 14196 14198 28
11359 14196 14199 28
11360 14196 14200 28
11361 14201 14202 28
11362 14201 14203 28
11363 14201 14204 28
11364 14201 14205 28
11365 14206 14207 28
11366 14206 14208 28
11367 14206 14209 28
11368 14206 14210 28
11369 14211 14212 28
11370 14211 14213 28
11371 14211 14214 28
11372 14211 14215 28
11373 14216 14217 28
11374 14216 14218 28
11375 14216 14219 28
11376 14216 14220 28
11377 14221 14222 28
11378 14221 14223 28
11379 14221 14224 28
11380 14221 14225 28
11381 14226 14227 28
11382 14226 14228 28
11383 14226 14229 28
11384 14226 14230 28
11385 14231 14232 28
11386 14231 14233 28
11387 14231 14234 28
11388 14231 14235 28
11389 14236 14237 28
11390 14236 14238 28
11391 14236 14239 28
11392 14236 14240 28
11393 14241 14242 28
11394 14241 14243 28
11395 14241 14244 28
11396 14241 14245 28
11397 14246 14247 28
11398 14246 14248 28
11399 14246 14249 28
11400 14246 14250 28
11401 14251 14252 28
11402 14251 14253 28
11403 14251 14254 28
11404 14251 14255 28
11405 14256 14257 28
11406 14256 14258 28
11407 14256 14259 28
11408 14256 14260 28
11409 14261 14262 28
11410 14261 14263 28
11411 14261 14264 28
11412 14261 14265 28
11413 14266 14267 28
11414 14266 14268 28
11415 14266 14269 28
11416 14266 14270 28
11417 14271 14272 28
11418 14271 14273 28
11419 14271 14274 28
11420 14271 14275 28
11421 14276 14277 28
11422 14276 14278 28
11423 14276 14279 28
11424 14276 14280 28
11425 14281 14282 28
11426 14281 14283 28
11427 14281 14284 28
11428 14281 14285 28
11429 14286 14287 28
11430 14286 14288 28
11431 14286 14289 28
11432 14286 14290 28
11433 14291 14292 28
11434 14291 14293 28
11435 14291 14294 28
11436 14291 14295 28
11437 14296 14297 28
11438 14296 14298 28
11439 14296 14299 28
11440 14296 14300 28
11441 14301 14302 28
11442 14301 14303 28
11443 14301 14304 28
11444 14301 14305 28
11445 14306 14307 28
11446 14306 14308 28
11447 14306 14309 28
11448 14306 14310 28
11449 14311 14312 28
11450 14311 14313 28
11451 14311 14314 28
11452 14311 14315 28
11453 14316 14317 28
11454 14316 14318 28
11455 14316 14319 28
11456 14316 14320 28
11457 14321 14322 28
11458 14321 14323 28
11459 14321 14324 28
11460 14321 14325 28
11461 14326 14327 28
11462 14326 14328 28
11463 14326 14329 28
11464 14326 14330 28
11465 14331 14332 28
11466 14331 14333 28
11467 14331 14334 28
11468 14331 14335 28
11469 14336 14337 28
11470 14336 14338 28
11471 14336 14339 28
11472 14336 14340 28
11473 14341 14342 28
11474 14341 14343 28
11475 14341 14344 28
11476 14341 14345 28
11477 14346 14347 28
11478 14346 14348 28
11479 14346 14349 28
11480 14346 14350 28
11481 14351 14352 28
11482 14351 14353 28
11483 14351 14354 28
11484 14351 14355 28
11485 14356 14357 28
11486 14356 14358 28
11487 14356 14359 28
11488 14356 14360 28
11489 14361 14362 28
11490 14361 14363 28
11491 14361 14364 28
11492 14361 14365 28
11493 14366 14367 28
11494 14366 14368 28
11495 14366 14369 28
11496 14366 14370 28
11497 14371 14372 28
11498 14371 14373 28
11499 14371 14374 28
11500 14371 14375 28
11501 14376 14377 28
11502 14376 14378 28
11503 14376 14379 28
11504 14376 14380 28
11505 14381 14382 28
11506 14381 14383 28
11507 14381 14384 28
11508 14381 14385 28
11509 14386 14387 28
11510 14386 14388 28
11511 14386 14389 28
11512 14386 14390 28
11513 14391 14392 28
11514 14391 14393 28
11515 14391 14394 28
11516 14391 14395 28
11517 14396 14397 28
11518 14396 14398 28
11519 14396 14399 28
11520 14396 14400 28
11521 14401 14402 28
11522 14401 14403 28
11523 14401 14404 28
11524 14401 14405 28
11525 14406 14407 28
11526 14406 14408 28
11527 14406 14409 28
11528 14406 14410 28
11529 14411 14412 28
11530 14411 14413 28
11531 14411 14414 28
11532 14411 14415 28
11533 14416 14417 28
11534 14416 14418 28
11535 14416 14419 28
11536 14416 14420 28
11537 14421 14422 28
11538 14421 14423 28
11539 14421 14424 28
11540 14421 14425 28
11541 14426 14427 28
11542 14426 14428 28
11543 14426 14429 28
11544 14426 14430 28
11545 14431 14432 28
11546 14431 14433 28
11547 14431 14434 28
11548 14431 14435 28
11549 14436 14437 28
11550 14436 14438 28
11551 14436 14439 28
11552 14436 14440 28
11553 14441 14442 28
11554 14441 14443 28
11555 14441 14444 28
11556 14441 14445 28
11557 14446 14447 28
11558 14446 14448 28
11559 14446 14449 28
11560 14446 14450 28
11561 14451 14452 28
11562 14451 14453 28
11563 14451 14454 28
11564 14451 14455 28
11565 14456 14457 28
11566 14456 14458 28
11567 14456 14459 28
11568 14456 14460 28
11569 14461 14462 28
11570 14461 14463 28
11571 14461 14464 28
11572 14461 14465 28
11573 14466 14467 28
11574 14466 14468 28
11575 14466 14469 28
11576 14466 14470 28
11577 14471 14472 28
11578 14471 14473 28
11579 14471 14474 28
11580 14471 14475 28
11581 14476 14477 28
11582 14476 14478 28
11583 14476 14479 28
11584 14476 14480 28
11585 14481 14482 28
11586 14481 14483 28
11587 14481 14484 28
11588 14481 14485 28
11589 14486 14487 28
11590 14486 14488 28
11591 14486 14489 28
11592 14486 14490 28
11593 14491 14492 28
11594 14491 14493 28
11595 14491 14494 28
11596 14491 14495 28
11597 14496 14497 28
11598 14496 14498 28
11599 14496 14499 28
11600 14496 14500 28
11601 14501 14502 28
11602 14501 14503 28
11603 14501 14504 28
11604 14501 14505 28
11605 14506 14507 28
11606 14506 14508 28
11607 14506 14509 28
11608 14506 14510 28
11609 14511 14512 28
11610 14511 14513 28
11611 14511 14514 28
11612 14511 14515 28
11613 14516 14517 28
11614 14516 14518 28
11615 14516 14519 28
11616 14516 14520 28
11617 14521 14522 28
11618 14521 14523 28
11619 14521 14524 28
11620 14521 14525 28
11621 14526 14527 28
11622 14526 14528 28
11623 14526 14529 28
11624 14526 14530 28
11625 14531 14532 28
11626 14531 14533 28
11627 14531 14534 28
11628 14531 14535 28
11629 14536 14537 28
11630 14536 14538 28
11631 14536 14539 28
11632 14536 14540 28
11633 14541 14542 28
11634 14541 14543 28
11635 14541 14544 28
11636 14541 14545 28
11637 14546 14547 28
11638 14546 14548 28
11639 14546 14549 28
11640 14546 14550 28
11641 14551 14552 28
11642 14551 14553 28
11643 14551 14554 28
11644 14551 14555 28
11645 14556 14557 28
11646 14556 14558 28
11647 14556 14559 28
11648 14556 14560 28
11649 14561 14562 28
11650 14561 14563 28
11651 14561 14564 28
11652 14561 14565 28
11653 14566 14567 28
11654 14566 14568 28
11655 14566 14569 28
11656 14566 14570 28
11657 14571 14572 28
11658 14571 14573 28
11659 14571 14574 28
11660 14571 14575 28
11661 14576 14577 28
11662 14576 14578 28
11663 14576 14579 28
11664 14576 14580 28
11665 14581 14582 28
11666 14581 14583 28
11667 14581 14584 28
11668 14581 14585 28
11669 14586 14587 28
11670 14586 14588 28
11671 14586 14589 28
11672 14586 14590 28
11673 14591 14592 28
11674 14591 14593 28
11675 14591 14594 28
11676 14591 14595 28
11677 14596 14597 28
11678 14596 14598 28
11679 14596 14599 28
11680 14596 14600 28
11681 14601 14602 28
11682 14601 14603 28
11683 14601 14604 28
11684 14601 14605 28
11685 14606 14607 28
11686 14606 14608 28
11687 14606 14609 28
11688 14606 14610 28
11689 14611 14612 28
11690 14611 14613 28
11691 14611 14614 28
11692 14611 14615 28
11693 14616 14617 28
11694 14616 14618 28
11695 14616 14619 28
11696 14616 14620 28
11697 14621 14622 28
11698 14621 14623 28
11699 14621 14624 28
11700 14621 14625 28
11701 14626 14627 28
11702 14626 14628 28
11703 14626 14629 28
11704 14626 14630 28
11705 14631 14632 28
11706 14631 14633 28
11707 14631 14634 28
11708 14631 14635 28
11709 14636 14637 28
11710 14636 14638 28
11711 14636 14639 28
11712 14636 14640 28
11713 14641 14642 28
11714 14641 14643 28
11715 14641 14644 28
11716 14641 14645 28
11717 14646 14647 28
11718 14646 14648 28
11719 14646 14649 28
11720 14646 14650 28
11721 14651 14652 28
11722 14651 14653 28
11723 14651 14654 28
11724 14651 14655 28
11725 14656 14657 28
11726 14656 14658 28
11727 14656 14659 28
11728 14656 14660 28
11729 14661 14662 28
11730 14661 14663 28
11731 14661 14664 28
11732 14661 14665 28
11733 14666 14667 28
11734 14666 14668 28
11735 14666 14669 28
11736 14666 14670 28
11737 14671 14672 28
11738 14671 14673 28
11739 14671 14674 28
11740 14671 14675 28
11741 14676 14677 28
11742 14676 14678 28
11743 14676 14679 28
11744 14676 14680 28
11745 14681 14682 28
11746 14681 14683 28
11747 14681 14684 28
11748 14681 14685 28
11749 14686 14687 28
11750 14686 14688 28
11751 14686 14689 28
11752 14686 14690 28
11753 14691 14692 28
11754 14691 14693 28
11755 14691 14694 28
11756 14691 14695 28
11757 14696 14697 28
11758 14696 14698 28
11759 14696 14699 28
11760 14696 14700 28
11761 14701 14702 28
11762 14701 14703 28
11763 14701 14704 28
11764 14701 14705 28
11765 14706 14707 28
11766 14706 14708 28
11767 14706 14709 28
11768 14706 14710 28
11769 14711 14712 28
11770 14711 14713 28
11771 14711 14714 28
11772 14711 14715 28
11773 14716 14717 28
11774 14716 14718 28
11775 14716 14719 28
11776 14716 14720 28
11777 14721 14722 28
11778 14721 14723 28
11779 14721 14724 28
11780 14721 14725 28
11781 14726 14727 28
11782 14726 14728 28
11783 14726 14729 28
11784 14726 14730 28
11785 14731 14732 28
11786 14731 14733 28
11787 14731 14734 28
11788 14731 14735 28
11789 14736 14737 28
11790 14736 14738 28
11791 14736 14739 28
11792 14736 14740 28
11793 14741 14742 28
11794 14741 14743 28
11795 14741 14744 28
11796 14741 14745 28
11797 14746 14747 28
11798 14746 14748 28
11799 14746 14749 28
11800 14746 14750 28
11801 14751 14752 28
11802 14751 14753 28
11803 14751 14754 28
11804 14751 14755 28
11805 14756 14757 28
11806 14756 14758 28
11807 14756 14759 28
11808 14756 14760 28
11809 14761 14762 28
11810 14761 14763 28
11811 14761 14764 28
11812 14761 14765 28
11813 14766 14767 28
11814 14766 14768 28
11815 14766 14769 28
11816 14766 14770 28
11817 14771 14772 28
11818 14771 14773 28
11819 14771 14774 28
11820 14771 14775 28
11821 14776 14777 28
11822 14776 14778 28
11823 14776 14779 28
11824 14776 14780 28
11825 14781 14782 28
11826 14781 14783 28
11827 14781 14784 28
11828 14781 14785 28
11829 14786 14787 28
11830 14786 14788 28
11831 14786 14789 28
11832 14786 14790 28
11833 14791 14792 28
11834 14791 14793 28
11835 14791 14794 28
11836 14791 14795 28
11837 14796 14797 28
11838 14796 14798 28
11839 14796 14799 28
11840 14796 14800 28
11841 14801 14802 28
11842 14801 14803 28
11843 14801 14804 28
11844 14801 14805 28
11845 14806 14807 28
11846 14806 14808 28
11847 14806 14809 28
11848 14806 14810 28
11849 14811 14812 28
11850 14811 14813 28
11851 14811 14814 28
11852 14811 14815 28
11853 14816 14817 28
11854 14816 14818 28
11855 14816 14819 28
11856 14816 14820 28
11857 14821 14822 28
11858 14821 14823 28
11859 14821 14824 28
11860 14821 14825 28
11861 14826 14827 28
11862 14826 14828 28
11863 14826 14829 28
11864 14826 14830 28
11865 14831 14832 28
11866 14831 14833 28
11867 14831 14834 28
11868 14831 14835 28
11869 14836 14837 28
11870 14836 14838 28
11871 14836 14839 28
11872 14836 14840 28
11873 14841 14842 28
11874 14841 14843 28
11875 14841 14844 28
11876 14841 14845 28
11877 14846 14847 28
11878 14846 14848 28
11879 14846 14849 28
11880 14846 14850 28
11881 14851 14852 28
11882 14851 14853 28
11883 14851 14854 28
11884 14851 14855 28
11885 14856 14857 28
11886 14856 14858 28
11887 14856 14859 28
11888 14856 14860 28
11889 14861 14862 28
11890 14861 14863 28
11891 14861 14864 28
11892 14861 14865 28
11893 14866 14867 28
11894 14866 14868 28
11895 14866 14869 28
11896 14866 14870 28
11897 14871 14872 28
11898 14871 14873 28
11899 14871 14874 28
11900 14871 14875 28
11901 14876 14877 28
11902 14876 14878 28
11903 14876 14879 28
11904 14876 14880 28
11905 14881 14882 28
11906 14881 14883 28
11907 14881 14884 28
11908 14881 14885 28
11909 14886 14887 28
11910 14886 14888 28
11911 14886 14889 28
11912 14886 14890 28
11913 14891 14892 28
11914 14891 14893 28
11915 14891 14894 28
11916 14891 14895 28
11917 14896 14897 28
11918 14896 14898 28
11919 14896 14899 28
11920 14896 14900 28
11921 14901 14902 28
11922 14901 14903 28
11923 14901 14904 28
11924 14901 14905 28
11925 14906 14907 28
11926 14906 14908 28
11927 14906 14909 28
11928 14906 14910 28
11929 14911 14912 28
11930 14911 14913 28
11931 14911 14914 28
11932 14911 14915 28
11933 14916 14917 28
11934 14916 14918 28
11935 14916 14919 28
11936 14916 14920 28
11937 14921 14922 28
11938 14921 14923 28
11939 14921 14924 28
11940 14921 14925 28
11941 14926 14927 28
11942 14926 14928 28
11943 14926 14929 28
11944 14926 14930 28
11945 14931 14932 28
11946 14931 14933 28
11947 14931 14934 28
11948 14931 14935 28
11949 14936 14937 28
11950 14936 14938 28
11951 14936 14939 28
11952 14936 14940 28
11953 14941 14942 28
11954 14941 14943 28
11955 14941 14944 28
11956 14941 14945 28
11957 14946 14947 28
11958 14946 14948 28
11959 14946 14949 28
11960 14946 14950 28
11961 14951 14952 28
11962 14951 14953 28
11963 14951 14954 28
11964 14951 14955 28
11965 14956 14957 28
11966 14956 14958 28
11967 14956 14959 28
11968 14956 14960 28
11969 14961 14962 28
11970 14961 14963 28
11971 14961 14964 28
11972 14961 14965 28
11973 14966 14967 28
11974 14966 14968 28
11975 14966 14969 28
11976 14966 14970 28
11977 14971 14972 28
11978 14971 14973 28
11979 14971 14974 28
11980 14971 14975 28
11981 14976 14977 28
11982 14976 14978 28
11983 14976 14979 28
11984 14976 14980 28
11985 14981 14982 28
11986 14981 14983 28
11987 14981 14984 28
11988 14981 14985 28
11989 14986 14987 28
11990 14986 14988 28
11991 14986 14989 28
11992 14986 14990 28
11993 14991 14992 28
11994 14991 14993 28
11995 14991 14994 28
11996 14991 14995 28
11997 14996 14997 28
11998 14996 14998 28
11999 14996 14999 28
12000 14996 15000 28
12001 15001 15002 28
12002 15001 15003 28
12003 15001 15004 28
12004 15001 15005 28
12005 15006 15007 28
12006 15006 15008 28
12007 15006 15009 28
12008 15006 15010 28
12009 15011 15012 28
12010 15011 15013 28
12011 15011 15014 28
12012 15011 15015 28
12013 15016 15017 28
12014 15016 15018 28
12015 15016 15019 28
12016 15016 15020 28
12017 15021 15022 28
12018 15021 15023 28
12019 15021 15024 28
12020 15021 15025 28
12021 15026 15027 28
12022 15026 15028 28
12023 15026 15029 28
12024 15026 15030 28
12025 15031 15032 28
12026 15031 15033 28
12027 15031 15034 28
12028 15031 15035 28
12029 15036 15037 28
12030 15036 15038 28
12031 15036 15039 28
12032 15036 15040 28
12033 15041 15042 28
12034 15041 15043 28
12035 15041 15044 28
12036 15041 15045 28
12037 15046 15047 28
12038 15046 15048 28
12039 15046 15049 28
12040 15046 15050 28
12041 15051 15052 28
12042 15051 15053 28
12043 15051 15054 28
12044 15051 15055 28
12045 15056 15057 28
12046 15056 15058 28
12047 15056 15059 28
12048 15056 15060 28
12049 15061 15062 28
12050 15061 15063 28
12051 15061 15064 28
12052 15061 15065 28
12053 15066 15067 28
12054 15066 15068 28
12055 15066 15069 28
12056 15066 15070 28
12057 15071 15072 28
12058 15071 15073 28
12059 15071 15074 28
12060 15071 15075 28
12061 15076 15077 28
12062 15076 15078 28
12063 15076 15079 28
12064 15076 15080 28
12065 15081 15082 28
12066 15081 15083 28
12067 15081 15084 28
12068 15081 15085 28
12069 15086 15087 28
12070 15086 15088 28
12071 15086 15089 28
12072 15086 15090 28
12073 15091 15092 28
12074 15091 15093 28
12075 15091 15094 28
12076 15091 15095 28
12077 15096 15097 28
12078 15096 15098 28
12079 15096 15099 28
12080 15096 15100 28
12081 15101 15102 28
12082 15101 15103 28
12083 15101 15104 28
12084 15101 15105 28
12085 15106 15107 28
12086 15106 15108 28
12087 15106 15109 28
12088 15106 15110 28
12089 15111 15112 28
12090 15111 15113 28
12091 15111 15114 28
12092 15111 15115 28
12093 15116 15117 28
12094 15116 15118 28
12095 15116 15119 28
12096 15116 15120 28
12097 15121 15122 28
12098 15121 15123 28
12099 15121 15124 28
12100 15121 15125 28
12101 15126 15127 28
12102 15126 15128 28
12103 15126 15129 28
12104 15126 15130 28
12105 15131 15132 28
12106 15131 15133 28
12107 15131 15134 28
12108 15131 15135 28
12109 15136 15137 28
12110 15136 15138 28
12111 15136 15139 28
12112 15136 15140 28
12113 15141 15142 28
12114 15141 15143 28
12115 15141 15144 28
12116 15141 15145 28
12117 15146 15147 28
12118 15146 15148 28
12119 15146 15149 28
12120 15146 15150 28
12121 15151 15152 28
12122 15151 15153 28
12123 15151 15154 28
12124 15151 15155 28
12125 15156 15157 28
12126 15156 15158 28
12127 15156 15159 28
12128 15156 15160 28
12129 15161 15162 28
12130 15161 15163 28
12131 15161 15164 28
12132 15161 15165 28
12133 15166 15167 28
12134 15166 15168 28
12135 15166 15169 28
12136 15166 15170 28
12137 15171 15172 28
12138 15171 15173 28
12139 15171 15174 28
12140 15171 15175 28
12141 15176 15177 28
12142 15176 15178 28
12143 15176 15179 28
12144 15176 15180 28
12145 15181 15182 28
12146 15181 15183 28
12147 15181 15184 28
12148 15181 15185 28
12149 15186 15187 28
12150 15186 15188 28
12151 15186 15189 28
12152 15186 15190 28
12153 15191 15192 28
12154 15191 15193 28
12155 15191 15194 28
12156 15191 15195 28
12157 15196 15197 28
12158 15196 15198 28
12159 15196 15199 28
12160 15196 15200 28
12161 15201 15202 28
12162 15201 15203 28
12163 15201 15204 28
12164 15201 15205 28
12165 15206 15207 28
12166 15206 15208 28
12167 15206 15209 28
12168 15206 15210 28
12169 15211 15212 28
12170 15211 15213 28
12171 15211 15214 28
12172 15211 15215 28
12173 15216 15217 28
12174 15216 15218 28
12175 15216 15219 28
12176 15216 15220 28
12177 15221 15222 28
12178 15221 15223 28
12179 15221 15224 28
12180 15221 15225 28
12181 15226 15227 28
12182 15226 15228 28
12183 15226 15229 28
12184 15226 15230 28
12185 15231 15232 28
12186 15231 15233 28
12187 15231 15234 28
12188 15231 15235 28
12189 15236 15237 28
12190 15236 15238 28
12191 15236 15239 28
12192 15236 15240 28
12193 15241 15242 28
12194 15241 15243 28
12195 15241 15244 28
12196 15241 15245 28
12197 15246 15247 28
12198 15246 15248 28
12199 15246 15249 28
12200 15246 15250 28
12201 15251 15252 28
12202 15251 15253 28
12203 15251 15254 28
12204 15251 15255 28
12205 15256 15257 28
12206 15256 15258 28
12207 15256 15259 28
12208 15256 15260 28
12209 15261 15262 28
12210 15261 15263 28
12211 15261 15264 28
12212 15261 15265 28
12213 15266 15267 28
12214 15266 15268 28
12215 15266 15269 28
12216 15266 15270 28
12217 15271 15272 28
12218 15271 15273 28
12219 15271 15274 28
12220 15271 15275 28
12221 15276 15277 28
12222 15276 15278 28
12223 15276 15279 28
12224 15276 15280 28
12225 15281 15282 28
12226 15281 15283 28
12227 15281 15284 28
12228 15281 15285 28
12229 15286 15287 28
12230 15286 15288 28
12231 15286 15289 28
12232 15286 15290 28
12233 15291 15292 28
12234 15291 15293 28
12235 15291 15294 28
12236 15291 15295 28
12237 15296 15297 28
12238 15296 15298 28
12239 15296 15299 28
12240 15296 15300 28
12241 15301 15302 28
12242 15301 15303 28
12243 15301 15304 28
12244 15301 15305 28
12245 15306 15307 28
12246 15306 15308 28
12247 15306 15309 28
12248 15306 15310 28
12249 15311 15312 28
12250 15311 15313 28
12251 15311 15314 28
12252 15311 15315 28
12253 15316 15317 28
12254 15316 15318 28
12255 15316 15319 28
12256 15316 15320 28
12257 15321 15322 28
12258 15321 15323 28
12259 15321 15324 28
12260 15321 15325 28
12261 15326 15327 28
12262 15326 15328 28
12263 15326 15329 28
12264 15326 15330 28
12265 15331 15332 28
12266 15331 15333 28
12267 15331 15334 28
12268 15331 15335 28
12269 15336 15337 28
12270 15336 15338 28
12271 15336 15339 28
12272 15336 15340 28
12273 15341 15342 28
12274 15341 15343 28
12275 15341 15344 28
12276 15341 15345 28
12277 15346 15347 28
12278 15346 15348 28
12279 15346 15349 28
12280 15346 15350 28
12281 15351 15352 28
12282 15351 15353 28
12283 15351 15354 28
12284 15351 15355 28
12285 15356 15357 28
12286 15356 15358 28
12287 15356 15359 28
12288 15356 15360 28
12289 15361 15362 28
12290 15361 15363 28
12291 15361 15364 28
12292 15361 15365 28
12293 15366 15367 28
12294 15366 15368 28
12295 15366 15369 28
12296 15366 15370 28
12297 15371 15372 28
12298 15371 15373 28
12299 15371 15374 28
12300 15371 15375 28
12301 15376 15377 28
12302 15376 15378 28
12303 15376 15379 28
12304 15376 15380 28
12305 15381 15382 28
12306 15381 15383 28
12307 15381 15384 28
12308 15381 15385 28
12309 15386 15387 28
12310 15386 15388 28
12311 15386 15389 28
12312 15386 15390 28
12313 15391 15392 28
12314 15391 15393 28
12315 15391 15394 28
12316 15391 15395 28
12317 15396 15397 28
12318 15396 15398 28
12319 15396 15399 28
12320 15396 15400 28
12321 15401 15402 28
12322 15401 15403 28
12323 15401 15404 28
12324 15401 15405 28
12325 15406 15407 28
12326 15406 15408 28
12327 15406 15409 28
12328 15406 15410 28
12329 15411 15412 28
12330 15411 15413 28
12331 15411 15414 28
12332 15411 15415 28
12333 15416 15417 28
12334 15416 15418 28
12335 15416 15419 28
12336 15416 15420 28
12337 15421 15422 28
12338 15421 15423 28
12339 15421 15424 28
12340 15421 15425 28
12341 15426 15427 28
12342 15426 15428 28
12343 15426 15429 28
12344 15426 15430 28
12345 15431 15432 28
12346 15431 15433 28
12347 15431 15434 28
12348 15431 15435 28
12349 15436 15437 28
12350 15436 15438 28
12351 15436 15439 28
12352 15436 15440 28
12353 15441 15442 28
12354 15441 15443 28
12355 15441 15444 28
12356 15441 15445 28
12357 15446 15447 28
12358 15446 15448 28
12359 15446 15449 28
12360 15446 15450 28
12361 15451 15452 28
12362 15451 15453 28
12363 15451 15454 28
12364 15451 15455 28
12365 15456 15457 28
12366 15456 15458 28
12367 15456 15459 28
12368 15456 15460 28
12369 15461 15462 28
12370 15461 15463 28
12371 15461 15464 28
12372 15461 15465 28
12373 15466 15467 28
12374 15466 15468 28
12375 15466 15469 28
12376 15466 15470 28
12377 15471 15472 28
12378 15471 15473 28
12379 15471 15474 28
12380 15471 15475 28
12381 15476 15477 28
12382 15476 15478 28
12383 15476 15479 28
12384 15476 15480 28
12385 15481 15482 28
12386 15481 15483 28
12387 15481 15484 28
12388 15481 15485 28
12389 15486 15487 28
12390 15486 15488 28
12391 15486 15489 28
12392 15486 15490 28
12393 15491 15492 28
12394 15491 15493 28
12395 15491 15494 28
12396 15491 15495 28
12397 15496 15497 28
12398 15496 15498 28
12399 15496 15499 28
12400 15496 15500 28
12401 15501 15502 28
12402 15501 15503 28
12403 15501 15504 28
12404 15501 15505 28
12405 15506 15507 28
12406 15506 15508 28
12407 15506 15509 28
12408 15506 15510 28
12409 15511 15512 28
12410 15511 15513 28
12411 15511 15514 28
12412 15511 15515 28
12413 15516 15517 28
12414 15516 15518 28
12415 15516 15519 28
12416 15516 15520 28
12417 15521 15522 28
12418 15521 15523 28
12419 15521 15524 28
12420 15521 15525 28
12421 15526 15527 28
12422 15526 15528 28
12423 15526 15529 28
12424 15526 15530 28
12425 15531 15532 28
12426 15531 15533 28
12427 15531 15534 28
12428 15531 15535 28
12429 15536 15537 28
12430 15536 15538 28
12431 15536 15539 28
12432 15536 15540 28
12433 15541 15542 28
12434 15541 15543 28
12435 15541 15544 28
12436 15541 15545 28
12437 15546 15547 28
12438 15546 15548 28
12439 15546 15549 28
12440 15546 15550 28
12441 15551 15552 28
12442 15551 15553 28
12443 15551 15554 28
12444 15551 15555 28
12445 15556 15557 28
12446 15556 15558 28
12447 15556 15559 28
12448 15556 15560 28
12449 15561 15562 28
12450 15561 15563 28
12451 15561 15564 28
12452 15561 15565 28
12453 15566 15567 28
12454 15566 15568 28
12455 15566 15569 28
12456 15566 15570 28
12457 15571 15572 28
12458 15571 15573 28
12459 15571 15574 28
12460 15571 15575 28
12461 15576 15577 28
12462 15576 15578 28
12463 15576 15579 28
12464 15576 15580 28
12465 15581 15582 28
12466 15581 15583 28
12467 15581 15584 28
12468 15581 15585 28
12469 15586 15587 28
12470 15586 15588 28
12471 15586 15589 28
12472 15586 15590 28
12473 15591 15592 28
12474 15591 15593 28
12475 15591 15594 28
12476 15591 15595 28
12477 15596 15597 28
12478 15596 15598 28
12479 15596 15599 28
12480 15596 15600 28
12481 15601 15602 28
12482 15601 15603 28
12483 15601 15604 28
12484 15601 15605 28
12485 15606 15607 28
12486 15606 15608 28
12487 15606 15609 28
12488 15606 15610 28
12489 15611 15612 28
12490 15611 15613 28
12491 15611 15614 28
12492 15611 15615 28
12493 15616 15617 28
12494 15616 15618 28
12495 15616 15619 28
12496 15616 15620 28
12497 15621 15622 28
12498 15621 15623 28
12499 15621 15624 28
12500 15621 15625 28
12501 15626 15627 28
12502 15626 15628 28
12503 15626 15629 28
12504 15626 15630 28
12505 15631 15632 28
12506 15631 15633 28
12507 15631 15634 28
12508 15631 15635 28
12509 15636 15637 28
12510 15636 15638 28
12511 15636 15639 28
12512 15636 15640 28
12513 15641 15642 28
12514 15641 15643 28
12515 15641 15644 28
12516 15641 15645 28
12517 15646 15647 28
12518 15646 15648 28
12519 15646 15649 28
12520 15646 15650 28
12521 15651 15652 28
12522 15651 15653 28
12523 15651 15654 28
12524 15651 15655 28
12525 15656 15657 28
12526 15656 15658 28
12527 15656 15659 28
12528 15656 15660 28
12529 15661 15662 28
12530 15661 15663 28
12531 15661 15664 28
12532 15661 15665 28
12533 15666 15667 28
12534 15666 15668 28
12535 15666 15669 28
12536 15666 15670 28
12537 15671 15672 28
12538 15671 15673 28
12539 15671 15674 28
12540 15671 15675 28
12541 15676 15677 28
12542 15676 15678 28
12543 15676 15679 28
12544 15676 15680 28
12545 15681 15682 28
12546 15681 15683 28
12547 15681 15684 28
12548 15681 15685 28
12549 15686 15687 28
12550 15686 15688 28
12551 15686 15689 28
12552 15686 15690 28
12553 15691 15692 28
12554 15691 15693 28
12555 15691 15694 28
12556 15691 15695 28
12557 15696 15697 28
12558 15696 15698 28
12559 15696 15699 28
12560 15696 15700 28
12561 15701 15702 28
12562 15701 15703 28
12563 15701 15704 28
12564 15701 15705 28
12565 15706 15707 28
12566 15706 15708 28
12567 15706 15709 28
12568 15706 15710 28
12569 15711 15712 28
12570 15711 15713 28
12571 15711 15714 28
12572 15711 15715 28
12573 15716 15717 28
12574 15716 15718 28
12575 15716 15719 28
12576 15716 15720 28
12577 15721 15722 28
12578 15721 15723 28
12579 15721 15724 28
12580 15721 15725 28
12581 15726 15727 28
12582 15726 15728 28
12583 15726 15729 28
12584 15726 15730 28
12585 15731 15732 28
12586 15731 15733 28
12587 15731 15734 28
12588 15731 15735 28
12589 15736 15737 28
12590 15736 15738 28
12591 15736 15739 28
12592 15736 15740 28
12593 15741 15742 28
12594 15741 15743 28
12595 15741 15744 28
12596 15741 15745 28
12597 15746 15747 28
12598 15746 15748 28
12599 15746 15749 28
12600 15746 15750 28
12601 15751 15752 28
12602 15751 15753 28
12603 15751 15754 28
12604 15751 15755 28
12605 15756 15757 28
12606 15756 15758 28
12607 15756 15759 28
12608 15756 15760 28
12609 15761 15762 28
12610 15761 15763 28
12611 15761 15764 28
12612 15761 15765 28
12613 15766 15767 28
12614 15766 15768 28
12615 15766 15769 28
12616 15766 15770 28
12617 15771 15772 28
12618 15771 15773 28
12619 15771 15774 28
12620 15771 15775 28
12621 15776 15777 28
12622 15776 15778 28
12623 15776 15779 28
12624 15776 15780 28
12625 15781 15782 28
12626 15781 15783 28
12627 15781 15784 28
12628 15781 15785 28
12629 15786 15787 28
12630 15786 15788 28
12631 15786 15789 28
12632 15786 15790 28
12633 15791 15792 28
12634 15791 15793 28
12635 15791 15794 28
12636 15791 15795 28
12637 15796 15797 28
12638 15796 15798 28
12639 15796 15799 28
12640 15796 15800 28
12641 15801 15802 28
12642 15801 15803 28
12643 15801 15804 28
12644 15801 15805 28
12645 15806 15807 28
12646 15806 15808 28
12647 15806 15809 28
12648 15806 15810 28
12649 15811 15812 28
12650 15811 15813 28
12651 15811 15814 28
12652 15811 15815 28
12653 15816 15817 28
12654 15816 15818 28
12655 15816 15819 28
12656 15816 15820 28
12657 15821 15822 28
12658 15821 15823 28
12659 15821 15824 28
12660 15821 15825 28
12661 15826 15827 28
12662 15826 15828 28
12663 15826 15829 28
12664 15826 15830 28
12665 15831 15832 28
12666 15831 15833 28
12667 15831 15834 28
12668 15831 15835 28
12669 15836 15837 28
12670 15836 15838 28
12671 15836 15839 28
12672 15836 15840 28
12673 15841 15842 28
12674 15841 15843 28
12675 15841 15844 28
12676 15841 15845 28
12677 15846 15847 28
12678 15846 15848 28
12679 15846 15849 28
12680 15846 15850 28
12681 15851 15852 28
12682 15851 15853 28
12683 15851 15854 28
12684 15851 15855 28
12685 15856 15857 28
12686 15856 15858 28
12687 15856 15859 28
12688 15856 15860 28
12689 15861 15862 28
12690 15861 15863 28
12691 15861 15864 28
12692 15861 15865 28
12693 15866 15867 28
12694 15866 15868 28
12695 15866 15869 28
12696 15866 15870 28
12697 15871 15872 28
12698 15871 15873 28
12699 15871 15874 28
12700 15871 15875 28
12701 15876 15877 28
12702 15876 15878 28
12703 15876 15879 28
12704 15876 15880 28
12705 15881 15882 28
12706 15881 15883 28
12707 15881 15884 28
12708 15881 15885 28
12709 15886 15887 28
12710 15886 15888 28
12711 15886 15889 28
12712 15886 15890 28
12713 15891 15892 28
12714 15891 15893 28
12715 15891 15894 28
12716 15891 15895 28
12717 15896 15897 28
12718 15896 15898 28
12719 15896 15899 28
12720 15896 15900 28
12721 15901 15902 28
12722 15901 15903 28
12723 15901 15904 28
12724 15901 15905 28
12725 15906 15907 28
12726 15906 15908 28
12727 15906 15909 28
12728 15906 15910 28
12729 15911 15912 28
12730 15911 15913 28
12731 15911 15914 28
12732 15911 15915 28
12733 15916 15917 28
12734 15916 15918 28
12735 15916 15919 28
12736 15916 15920 28
12737 15921 15922 28
12738 15921 15923 28
12739 15921 15924 28
12740 15921 15925 28
12741 15926 15927 28
12742 15926 15928 28
12743 15926 15929 28
12744 15926 15930 28
12745 15931 15932 28
12746 15931 15933 28
12747 15931 15934 28
12748 15931 15935 28
12749 15936 15937 28
12750 15936 15938 28
12751 15936 15939 28
12752 15936 15940 28
12753 15941 15942 28
12754 15941 15943 28
12755 15941 15944 28
12756 15941 15945 28
12757 15946 15947 28
12758 15946 15948 28
12759 15946 15949 28
12760 15946 15950 28
12761 15951 15952 28
12762 15951 15953 28
12763 15951 15954 28
12764 15951 15955 28
12765 15956 15957 28
12766 15956 15958 28
12767 15956 15959 28
12768 15956 15960 28
12769 15961 15962 28
12770 15961 15963 28
12771 15961 15964 28
12772 15961 15965 28
12773 15966 15967 28
12774 15966 15968 28
12775 15966 15969 28
12776 15966 15970 28
12777 15971 15972 28
12778 15971 15973 28
12779 15971 15974 28
12780 15971 15975 28
12781 15976 15977 28
12782 15976 15978 28
12783 15976 15979 28
12784 15976 15980 28
12785 15981 15982 28
12786 15981 15983 28
12787 15981 15984 28
12788 15981 15985 28
12789 15986 15987 28
12790 15986 15988 28
12791 15986 15989 28
12792 15986 15990 28
12793 15991 15992 28
12794 15991 15993 28
12795 15991 15994 28
12796 15991 15995 28
12797 15996 15997 28
12798 15996 15998 28
12799 15996 15999 28
12800 15996 16000 28
12801 16001 16002 28
12802 16001 16003 28
12803 16001 16004 28
12804 16001 16005 28
12805 16006 16007 28
12806 16006 16008 28
12807 16006 16009 28
12808 16006 16010 28
12809 16011 16012 28
12810 16011 16013 28
12811 16011 16014 28
12812 16011 16015 28
12813 16016 16017 28
12814 16016 16018 28
12815 16016 16019 28
12816 16016 16020 28
12817 16021 16022 28
12818 16021 16023 28
12819 16021 16024 28
12820 16021 16025 28
12821 16026 16027 28
12822 16026 16028 28
12823 16026 16029 28
12824 16026 16030 28
12825 16031 16032 28
12826 16031 16033 28
12827 16031 16034 28
12828 16031 16035 28
12829 16036 16037 28
12830 16036 16038 28
12831 16036 16039 28
12832 16036 16040 28
12833 16041 16042 28
12834 16041 16043 28
12835 16041 16044 28
12836 16041 16045 28
12837 16046 16047 28
12838 16046 16048 28
12839 16046 16049 28
12840 16046 16050 28
12841 16051 16052 28
12842 16051 16053 28
12843 16051 16054 28
12844 16051 16055 28
12845 16056 16057 28
12846 16056 16058 28
12847 16056 16059 28
12848 16056 16060 28
12849 16061 16062 28
12850 16061 16063 28
12851 16061 16064 28
12852 16061 16065 28
12853 16066 16067 28
12854 16066 16068 28
12855 16066 16069 28
12856 16066 16070 28
12857 16071 16072 28
12858 16071 16073 28
12859 16071 16074 28
12860 16071 16075 28
12861 16076 16077 28
12862 16076 16078 28
12863 16076 16079 28
12864 16076 16080 28
12865 16081 16082 28
12866 16081 16083 28
12867 16081 16084 28
12868 16081 16085 28
12869 16086 16087 28
12870 16086 16088 28
12871 16086 16089 28
12872 16086 16090 28
12873 16091 16092 28
12874 16091 16093 28
12875 16091 16094 28
12876 16091 16095 28
12877 16096 16097 28
12878 16096 16098 28
12879 16096 16099 28
12880 16096 16100 28
12881 16101 16102 28
12882 16101 16103 28
12883 16101 16104 28
12884 16101 16105 28
12885 16106 16107 28
12886 16106 16108 28
12887 16106 16109 28
12888 16106 16110 28
12889 16111 16112 28
12890 16111 16113 28
12891 16111 16114 28
12892 16111 16115 28
12893 16116 16117 28
12894 16116 16118 28
12895 16116 16119 28
12896 16116 16120 28
12897 16121 16122 28
12898 16121 16123 28
12899 16121 16124 28
12900 16121 16125 28
12901 16126 16127 28
12902 16126 16128 28
12903 16126 16129 28
12904 16126 16130 28
12905 16131 16132 28
12906 16131 16133 28
12907 16131 16134 28
12908 16131 16135 28
12909 16136 16137 28
12910 16136 16138 28
12911 16136 16139 28
12912 16136 16140 28
12913 16141 16142 28
12914 16141 16143 28
12915 16141 16144 28
12916 16141 16145 28
12917 16146 16147 28
12918 16146 16148 28
12919 16146 16149 28
12920 16146 16150 28
12921 16151 16152 28
12922 16151 16153 28
12923 16151 16154 28
12924 16151 16155 28
12925 16156 16157 28
12926 16156 16158 28
12927 16156 16159 28
12928 16156 16160 28
12929 16161 16162 28
12930 16161 16163 28
12931 16161 16164 28
12932 16161 16165 28
12933 16166 16167 28
12934 16166 16168 28
12935 16166 16169 28
12936 16166 16170 28
12937 16171 16172 28
12938 16171 16173 28
12939 16171 16174 28
12940 16171 16175 28
12941 16176 16177 28
12942 16176 16178 28
12943 16176 16179 28
12944 16176 16180 28
12945 16181 16182 28
12946 16181 16183 28
12947 16181 16184 28
12948 16181 16185 28
12949 16186 16187 28
12950 16186 16188 28
12951 16186 16189 28
12952 16186 16190 28
12953 16191 16192 28
12954 16191 16193 28
12955 16191 16194 28
12956 16191 16195 28
12957 16196 16197 28
12958 16196 16198 28
12959 16196 16199 28
12960 16196 16200 28
12961 16201 16202 28
12962 16201 16203 28
12963 16201 16204 28
12964 16201 16205 28
12965 16206 16207 28
12966 16206 16208 28
12967 16206 16209 28
12968 16206 16210 28
12969 16211 16212 28
12970 16211 16213 28
12971 16211 16214 28
12972 16211 16215 28
12973 16216 16217 28
12974 16216 16218 28
12975 16216 16219 28
12976 16216 16220 28
12977 16221 16222 28
12978 16221 16223 28
12979 16221 16224 28
12980 16221 16225 28
12981 16226 16227 28
12982 16226 16228 28
12983 16226 16229 28
12984 16226 16230 28
12985 16231 16232 28
12986 16231 16233 28
12987 16231 16234 28
12988 16231 16235 28
12989 16236 16237 28
12990 16236 16238 28
12991 16236 16239 28
12992 16236 16240 28
12993 16241 16242 28
12994 16241 16243 28
12995 16241 16244 28
12996 16241 16245 28
12997 16246 16247 28
12998 16246 16248 28
12999 16246 16249 28
13000 16246 16250 28
13001 16251 16252 28
13002 16251 16253 28
13003 16251 16254 28
13004 16251 16255 28
13005 16256 16257 28
13006 16256 16258 28
13007 16256 16259 28
13008 16256 16260 28
13009 16261 16262 28
13010 16261 16263 28
13011 16261 16264 28
13012 16261 16265 28
13013 16266 16267 28
13014 16266 16268 28
13015 16266 16269 28
13016 16266 16270 28
13017 16271 16272 28
13018 16271 16273 28
13019 16271 16274 28
13020 16271 16275 28
13021 16276 16277 28
13022 16276 16278 28
13023 16276 16279 28
13024 16276 16280 28
13025 16281 16282 28
13026 16281 16283 28
13027 16281 16284 28
13028 16281 16285 28
13029 16286 16287 28
13030 16286 16288 28
13031 16286 16289 28
13032 16286 16290 28
13033 16291 16292 28
13034 16291 16293 28
13035 16291 16294 28
13036 16291 16295 28
13037 16296 16297 28
13038 16296 16298 28
13039 16296 16299 28
13040 16296 16300 28
13041 16301 16302 28
13042 16301 16303 28
13043 16301 16304 28
13044 16301 16305 28
13045 16306 16307 28
13046 16306 16308 28
13047 16306 16309 28
13048 16306 16310 28
13049 16311 16312 28
13050 16311 16313 28
13051 16311 16314 28
13052 16311 16315 28
13053 16316 16317 28
13054 16316 16318 28
13055 16316 16319 28
13056 16316 16320 28
13057 16321 16322 28
13058 16321 16323 28
13059 16321 16324 28
13060 16321 16325 28
13061 16326 16327 28
13062 16326 16328 28
13063 16326 16329 28
13064 16326 16330 28
13065 16331 16332 28
13066 16331 16333 28
13067 16331 16334 28
13068 16331 16335 28
13069 16336 16337 28
13070 16336 16338 28
13071 16336 16339 28
13072 16336 16340 28
13073 16341 16342 28
13074 16341 16343 28
13075 16341 16344 28
13076 16341 16345 28
13077 16346 16347 28
13078 16346 16348 28
13079 16346 16349 28
13080 16346 16350 28
13081 16351 16352 28
13082 16351 16353 28
13083 16351 16354 28
13084 16351 16355 28
13085 16356 16357 28
13086 16356 16358 28
13087 16356 16359 28
13088 16356 16360 28
13089 16361 16362 28
13090 16361 16363 28
13091 16361 16364 28
13092 16361 16365 28
13093 16366 16367 28
13094 16366 16368 28
13095 16366 16369 28
13096 16366 16370 28
13097 16371 16372 28
13098 16371 16373 28
13099 16371 16374 28
13100 16371 16375 28
13101 16376 16377 28
13102 16376 16378 28
13103 16376 16379 28
13104 16376 16380 28
13105 16381 16382 28
13106 16381 16383 28
13107 16381 16384 28
13108 16381 16385 28
13109 16386 16387 28
13110 16386 16388 28
13111 16386 16389 28
13112 16386 16390 28
13113 16391 16392 28
13114 16391 16393 28
13115 16391 16394 28
13116 16391 16395 28
13117 16396 16397 28
13118 16396 16398 28
13119 16396 16399 28
13120 16396 16400 28
13121 16401 16402 28
13122 16401 16403 28
13123 16401 16404 28
13124 16401 16405 28
13125 16406 16407 28
13126 16406 16408 28
13127 16406 16409 28
13128 16406 16410 28
13129 16411 16412 28
13130 16411 16413 28
13131 16411 16414 28
13132 16411 16415 28
13133 16416 16417 28
13134 16416 16418 28
13135 16416 16419 28
13136 16416 16420 28
13137 16421 16422 28
13138 16421 16423 28
13139 16421 16424 28
13140 16421 16425 28
13141 16426 16427 28
13142 16426 16428 28
13143 16426 16429 28
13144 16426 16430 28
13145 16431 16432 28
13146 16431 16433 28
13147 16431 16434 28
13148 16431 16435 28
13149 16436 16437 28
13150 16436 16438 28
13151 16436 16439 28
13152 16436 16440 28
13153 16441 16442 28
13154 16441 16443 28
13155 16441 16444 28
13156 16441 16445 28
13157 16446 16447 28
13158 16446 16448 28
13159 16446 16449 28
13160 16446 16450 28
13161 16451 16452 28
13162 16451 16453 28
13163 16451 16454 28
13164 16451 16455 28
13165 16456 16457 28
13166 16456 16458 28
13167 16456 16459 28
13168 16456 16460 28
13169 16461 16462 28
13170 16461 16463 28
13171 16461 16464 28
13172 16461 16465 28
13173 16466 16467 28
13174 16466 16468 28
13175 16466 16469 28
13176 16466 16470 28
13177 16471 16472 28
13178 16471 16473 28
13179 16471 16474 28
13180 16471 16475 28
13181 16476 16477 28
13182 16476 16478 28
13183 16476 16479 28
13184 16476 16480 28
13185 16481 16482 28
13186 16481 16483 28
13187 16481 16484 28
13188 16481 16485 28
13189 16486 16487 28
13190 16486 16488 28
13191 16486 16489 28
13192 16486 16490 28
13193 16491 16492 28
13194 16491 16493 28
13195 16491 16494 28
13196 16491 16495 28
13197 16496 16497 28
13198 16496 16498 28
13199 16496 16499 28
13200 16496 16500 28
13201 16501 16502 28
13202 16501 16503 28
13203 16501 16504 28
13204 16501 16505 28
13205 16506 16507 28
13206 16506 16508 28
13207 16506 16509 28
13208 16506 16510 28
13209 16511 16512 28
13210 16511 16513 28
13211 16511 16514 28
13212 16511 16515 28
13213 16516 16517 28
13214 16516 16518 28
13215 16516 16519 28
13216 16516 16520 28
13217 16521 16522 28
13218 16521 16523 28
13219 16521 16524 28
13220 16521 16525 28
13221 16526 16527 28
13222 16526 16528 28
13223 16526 16529 28
13224 16526 16530 28
13225 16531 16532 28
13226 16531 16533 28
13227 16531 16534 28
13228 16531 16535 28
13229 16536 16537 28
13230 16536 16538 28
13231 16536 16539 28
13232 16536 16540 28
13233 16541 16542 28
13234 16541 16543 28
13235 16541 16544 28
13236 16541 16545 28
13237 16546 16547 28
13238 16546 16548 28
13239 16546 16549 28
13240 16546 16550 28
13241 16551 16552 28
13242 16551 16553 28
13243 16551 16554 28
13244 16551 16555 28
13245 16556 16557 28
13246 16556 16558 28
13247 16556 16559 28
13248 16556 16560 28
13249 16561 16562 28
13250 16561 16563 28
13251 16561 16564 28
13252 16561 16565 28
13253 16566 16567 28
13254 16566 16568 28
13255 16566 16569 28
13256 16566 16570 28
13257 16571 16572 28
13258 16571 16573 28
13259 16571 16574 28
13260 16571 16575 28
13261 16576 16577 28
13262 16576 16578 28
13263 16576 16579 28
13264 16576 16580 28
13265 16581 16582 28
13266 16581 16583 28
13267 16581 16584 28
13268 16581 16585 28
13269 16586 16587 28
13270 16586 16588 28
13271 16586 16589 28
13272 16586 16590 28
13273 16591 16592 28
13274 16591 16593 28
13275 16591 16594 28
13276 16591 16595 28
13277 16596 16597 28
13278 16596 16598 28
13279 16596 16599 28
13280 16596 16600 28
13281 16601 16602 28
13282 16601 16603 28
13283 16601 16604 28
13284 16601 16605 28
13285 16606 16607 28
13286 16606 16608 28
13287 16606 16609 28
13288 16606 16610 28
13289 16611 16612 28
13290 16611 16613 28
13291 16611 16614 28
13292 16611 16615 28
13293 16616 16617 28
13294 16616 16618 28
13295 16616 16619 28
13296 16616 16620 28
13297 16621 16622 28
13298 16621 16623 28
13299 16621 16624 28
13300 16621 16625 28
13301 16626 16627 28
13302 16626 16628 28
13303 16626 16629 28
13304 16626 16630 28
13305 16631 16632 28
13306 16631 16633 28
13307 16631 16634 28
13308 16631 16635 28
13309 16636 16637 28
13310 16636 16638 28
13311 16636 16639 28
13312 16636 16640 28
13313 16641 16642 28
13314 16641 16643 28
13315 16641 16644 28
13316 16641 16645 28
13317 16646 16647 28
13318 16646 16648 28
13319 16646 16649 28
13320 16646 16650 28
13321 16651 16652 28
13322 16651 16653 28
13323 16651 16654 28
13324 16651 16655 28
13325 16656 16657 28
13326 16656 16658 28
13327 16656 16659 28
13328 16656 16660 28
13329 16661 16662 28
13330 16661 16663 28
13331 16661 16664 28
13332 16661 16665 28
13333 16666 16667 28
13334 16666 16668 28
13335 16666 16669 28
13336 16666 16670 28
13337 16671 16672 28
13338 16671 16673 28
13339 16671 16674 28
13340 16671 16675 28
13341 16676 16677 28
13342 16676 16678 28
13343 16676 16679 28
13344 16676 16680 28
13345 16681 16682 28
13346 16681 16683 28
13347 16681 16684 28
13348 16681 16685 28
13349 16686 16687 28
13350 16686 16688 28
13351 16686 16689 28
13352 16686 16690 28
13353 16691 16692 28
13354 16691 16693 28
13355 16691 16694 28
13356 16691 16695 28
13357 16696 16697 28
13358 16696 16698 28
13359 16696 16699 28
13360 16696 16700 28
13361 16701 16702 28
13362 16701 16703 28
13363 16701 16704 28
13364 16701 16705 28
13365 16706 16707 28
13366 16706 16708 28
13367 16706 16709 28
13368 16706 16710 28
13369 16711 16712 28
13370 16711 16713 28
13371 16711 16714 28
13372 16711 16715 28
13373 16716 16717 28
13374 16716 16718 28
13375 16716 16719 28
13376 16716 16720 28
13377 16721 16722 28
13378 16721 16723 28
13379 16721 16724 28
13380 16721 16725 28
13381 16726 16727 28
13382 16726 16728 28
13383 16726 16729 28
13384 16726 16730 28
13385 16731 16732 28
13386 16731 16733 28
13387 16731 16734 28
13388 16731 16735 28
13389 16736 16737 28
13390 16736 16738 28
13391 16736 16739 28
13392 16736 16740 28
13393 16741 16742 28
13394 16741 16743 28
13395 16741 16744 28
13396 16741 16745 28
13397 16746 16747 28
13398 16746 16748 28
13399 16746 16749 28
13400 16746 16750 28
13401 16751 16752 28
13402 16751 16753 28
13403 16751 16754 28
13404 16751 16755 28
13405 16756 16757 28
13406 16756 16758 28
13407 16756 16759 28
13408 16756 16760 28
13409 16761 16762 28
13410 16761 16763 28
13411 16761 16764 28
13412 16761 16765 28
13413 16766 16767 28
13414 16766 16768 28
13415 16766 16769 28
13416 16766 16770 28
13417 16771 16772 28
13418 16771 16773 28
13419 16771 16774 28
13420 16771 16775 28
13421 16776 16777 28
13422 16776 16778 28
13423 16776 16779 28
13424 16776 16780 28
13425 16781 16782 28
13426 16781 16783 28
13427 16781 16784 28
13428 16781 16785 28
13429 16786 16787 28
13430 16786 16788 28
13431 16786 16789 28
13432 16786 16790 28
13433 16791 16792 28
13434 16791 16793 28
13435 16791 16794 28
13436 16791 16795 28
13437 16796 16797 28
13438 16796 16798 28
13439 16796 16799 28
13440 16796 16800 28
13441 16801 16802 28
13442 16801 16803 28
13443 16801 16804 28
13444 16801 16805 28
13445 16806 16807 28
13446 16806 16808 28
13447 16806 16809 28
13448 16806 16810 28
13449 16811 16812 28
13450 16811 16813 28
13451 16811 16814 28
13452 16811 16815 28
13453 16816 16817 28
13454 16816 16818 28
13455 16816 16819 28
13456 16816 16820 28
13457 16821 16822 28
13458 16821 16823 28
13459 16821 16824 28
13460 16821 16825 28
13461 16826 16827 28
13462 16826 16828 28
13463 16826 16829 28
13464 16826 16830 28
13465 16831 16832 28
13466 16831 16833 28
13467 16831 16834 28
13468 16831 16835 28
13469 16836 16837 28
13470 16836 16838 28
13471 16836 16839 28
13472 16836 16840 28
13473 16841 16842 28
13474 16841 16843 28
13475 16841 16844 28
13476 16841 16845 28
13477 16846 16847 28
13478 16846 16848 28
13479 16846 16849 28
13480 16846 16850 28
13481 16851 16852 28
13482 16851 16853 28
13483 16851 16854 28
13484 16851 16855 28
13485 16856 16857 28
13486 16856 16858 28
13487 16856 16859 28
13488 16856 16860 28
13489 16861 16862 28
13490 16861 16863 28
13491 16861 16864 28
13492 16861 16865 28
13493 16866 16867 28
13494 16866 16868 28
13495 16866 16869 28
13496 16866 16870 28
13497 16871 16872 28
13498 16871 16873 28
13499 16871 16874 28
13500 16871 16875 28
13501 16876 16877 28
13502 16876 16878 28
13503 16876 16879 28
13504 16876 16880 28
13505 16881 16882 28
13506 16881 16883 28
13507 16881 16884 28
13508 16881 16885 28
13509 16886 16887 28
13510 16886 16888 28
13511 16886 16889 28
13512 16886 16890 28
13513 16891 16892 28
13514 16891 16893 28
13515 16891 16894 28
13516 16891 16895 28
13517 16896 16897 28
13518 16896 16898 28
13519 16896 16899 28
13520 16896 16900 28
13521 16901 16902 28
13522 16901 16903 28
13523 16901 16904 28
13524 16901 16905 28
13525 16906 16907 28
13526 16906 16908 28
13527 16906 16909 28
13528 16906 16910 28
13529 16911 16912 28
13530 16911 16913 28
13531 16911 16914 28
13532 16911 16915 28
13533 16916 16917 28
13534 16916 16918 28
13535 16916 16919 28
13536 16916 16920 28
13537 16921 16922 28
13538 16921 16923 28
13539 16921 16924 28
13540 16921 16925 28
13541 16926 16927 28
13542 16926 16928 28
13543 16926 16929 28
13544 16926 16930 28
13545 16931 16932 28
13546 16931 16933 28
13547 16931 16934 28
13548 16931 16935 28
13549 16936 16937 28
13550 16936 16938 28
13551 16936 16939 28
13552 16936 16940 28
13553 16941 16942 28
13554 16941 16943 28
13555 16941 16944 28
13556 16941 16945 28
13557 16946 16947 28
13558 16946 16948 28
13559 16946 16949 28
13560 16946 16950 28
13561 16951 16952 28
13562 16951 16953 28
13563 16951 16954 28
13564 16951 16955 28
13565 16956 16957 28
13566 16956 16958 28
13567 16956 16959 28
13568 16956 16960 28
13569 16961 16962 28
13570 16961 16963 28
13571 16961 16964 28
13572 16961 16965 28
13573 16966 16967 28
13574 16966 16968 28
13575 16966 16969 28
13576 16966 16970 28
13577 16971 16972 28
13578 16971 16973 28
13579 16971 16974 28
13580 16971 16975 28
13581 16976 16977 28
13582 16976 16978 28
13583 16976 16979 28
13584 16976 16980 28
13585 16981 16982 28
13586 16981 16983 28
13587 16981 16984 28
13588 16981 16985 28
13589 16986 16987 28
13590 16986 16988 28
13591 16986 16989 28
13592 16986 16990 28
13593 16991 16992 28
13594 16991 16993 28
13595 16991 16994 28
13596 16991 16995 28
13597 16996 16997 28
13598 16996 16998 28
13599 16996 16999 28
13600 16996 17000 28
13601 17001 17002 28
13602 17001 17003 28
13603 17001 17004 28
13604 17001 17005 28
13605 17006 17007 28
13606 17006 17008 28
13607 17006 17009 28
13608 17006 17010 28
13609 17011 17012 28
13610 17011 17013 28
13611 17011 17014 28
13612 17011 17015 28
13613 17016 17017 28
13614 17016 17018 28
13615 17016 17019 28
13616 17016 17020 28
13617 17021 17022 28
13618 17021 17023 28
13619 17021 17024 28
13620 17021 17025 28
13621 17026 17027 28
13622 17026 17028 28
13623 17026 17029 28
13624 17026 17030 28
13625 17031 17032 28
13626 17031 17033 28
13627 17031 17034 28
13628 17031 17035 28
13629 17036 17037 28
13630 17036 17038 28
13631 17036 17039 28
13632 17036 17040 28
13633 17041 17042 28
13634 17041 17043 28
13635 17041 17044 28
13636 17041 17045 28
13637 17046 17047 28
13638 17046 17048 28
13639 17046 17049 28
13640 17046 17050 28
13641 17051 17052 28
13642 17051 17053 28
13643 17051 17054 28
13644 17051 17055 28
13645 17056 17057 28
13646 17056 17058 28
13647 17056 17059 28
13648 17056 17060 28
13649 17061 17062 28
13650 17061 17063 28
13651 17061 17064 28
13652 17061 17065 28
13653 17066 17067 28
13654 17066 17068 28
13655 17066 17069 28
13656 17066 17070 28
13657 17071 17072 28
13658 17071 17073 28
13659 17071 17074 28
13660 17071 17075 28
13661 17076 17077 28
13662 17076 17078 28
13663 17076 17079 28
13664 17076 17080 28
13665 17081 17082 28
13666 17081 17083 28
13667 17081 17084 28
13668 17081 17085 28
13669 17086 17087 28
13670 17086 17088 28
13671 17086 17089 28
13672 17086 17090 28
13673 17091 17092 28
13674 17091 17093 28
13675 17091 17094 28
13676 17091 17095 28
13677 17096 17097 28
13678 17096 17098 28
13679 17096 17099 28
13680 17096 17100 28
13681 17101 17102 28
13682 17101 17103 28
13683 17101 17104 28
13684 17101 17105 28
13685 17106 17107 28
13686 17106 17108 28
13687 17106 17109 28
13688 17106 17110 28
13689 17111 17112 28
13690 17111 17113 28
13691 17111 17114 28
13692 17111 17115 28
13693 17116 17117 28
13694 17116 17118 28
13695 17116 17119 28
13696 17116 17120 28
13697 17121 17122 28
13698 17121 17123 28
13699 17121 17124 28
13700 17121 17125 28
13701 17126 17127 28
13702 17126 17128 28
13703 17126 17129 28
13704 17126 17130 28
13705 17131 17132 28
13706 17131 17133 28
13707 17131 17134 28
13708 17131 17135 28
13709 17136 17137 28
13710 17136 17138 28
13711 17136 17139 28
13712 17136 17140 28
13713 17141 17142 28
13714 17141 17143 28
13715 17141 17144 28
13716 17141 17145 28
13717 17146 17147 28
13718 17146 17148 28
13719 17146 17149 28
13720 17146 17150 28
13721 17151 17152 28
13722 17151 17153 28
13723 17151 17154 28
13724 17151 17155 28
13725 17156 17157 28
13726 17156 17158 28
13727 17156 17159 28
13728 17156 17160 28
13729 17161 17162 28
13730 17161 17163 28
13731 17161 17164 28
13732 17161 17165 28
13733 17166 17167 28
13734 17166 17168 28
13735 17166 17169 28
13736 17166 17170 28
13737 17171 17172 28
13738 17171 17173 28
13739 17171 17174 28
13740 17171 17175 28
13741 17176 17177 28
13742 17176 17178 28
13743 17176 17179 28
13744 17176 17180 28
13745 17181 17182 28
13746 17181 17183 28
13747 17181 17184 28
13748 17181 17185 28
13749 17186 17187 28
13750 17186 17188 28
13751 17186 17189 28
13752 17186 17190 28
13753 17191 17192 28
13754 17191 17193 28
13755 17191 17194 28
13756 17191 17195 28
13757 17196 17197 28
13758 17196 17198 28
13759 17196 17199 28
13760 17196 17200 28
13761 17201 17202 28
13762 17201 17203 28
13763 17201 17204 28
13764 17201 17205 28
13765 17206 17207 28
13766 17206 17208 28
13767 17206 17209 28
13768 17206 17210 28
13769 17211 17212 28
13770 17211 17213 28
13771 17211 17214 28
13772 17211 17215 28
13773 17216 17217 28
13774 17216 17218 28
13775 17216 17219 28
13776 17216 17220 28
13777 17221 17222 28
13778 17221 17223 28
13779 17221 17224 28
13780 17221 17225 28
13781 17226 17227 28
13782 17226 17228 28
13783 17226 17229 28
13784 17226 17230 28
13785 17231 17232 28
13786 17231 17233 28
13787 17231 17234 28
13788 17231 17235 28
13789 17236 17237 28
13790 17236 17238 28
13791 17236 17239 28
13792 17236 17240 28
13793 17241 17242 28
13794 17241 17243 28
13795 17241 17244 28
13796 17241 17245 28
13797 17246 17247 28
13798 17246 17248 28
13799 17246 17249 28
13800 17246 17250 28
13801 17251 17252 28
13802 17251 17253 28
13803 17251 17254 28
13804 17251 17255 28
13805 17256 17257 28
13806 17256 17258 28
13807 17256 17259 28
13808 17256 17260 28
13809 17261 17262 28
13810 17261 17263 28
13811 17261 17264 28
13812 17261 17265 28
13813 17266 17267 28
13814 17266 17268 28
13815 17266 17269 28
13816 17266 17270 28
13817 17271 17272 28
13818 17271 17273 28
13819 17271 17274 28
13820 17271 17275 28
13821 17276 17277 28
13822 17276 17278 28
13823 17276 17279 28
13824 17276 17280 28
13825 17281 17282 28
13826 17281 17283 28
13827 17281 17284 28
13828 17281 17285 28
13829 17286 17287 28
13830 17286 17288 28
13831 17286 17289 28
13832 17286 17290 28
13833 17291 17292 28
13834 17291 17293 28
13835 17291 17294 28
13836 17291 17295 28
13837 17296 17297 28
13838 17296 17298 28
13839 17296 17299 28
13840 17296 17300 28
13841 17301 17302 28
13842 17301 17303 28
13843 17301 17304 28
13844 17301 17305 28
13845 17306 17307 28
13846 17306 17308 28
13847 17306 17309 28
13848 17306 17310 28
13849 17311 17312 28
13850 17311 17313 28
13851 17311 17314 28
13852 17311 17315 28
13853 17316 17317 28
13854 17316 17318 28
13855 17316 17319 28
13856 17316 17320 28
13857 17321 17322 28
13858 17321 17323 28
13859 17321 17324 28
13860 17321 17325 28
13861 17326 17327 28
13862 17326 17328 28
13863 17326 17329 28
13864 17326 17330 28
13865 17331 17332 28
13866 17331 17333 28
13867 17331 17334 28
13868 17331 17335 28
13869 17336 17337 28
13870 17336 17338 28
13871 17336 17339 28
13872 17336 17340 28
13873 17341 17342 28
13874 17341 17343 28
13875 17341 17344 28
13876 17341 17345 28
13877 17346 17347 28
13878 17346 17348 28
13879 17346 17349 28
13880 17346 17350 28
13881 17351 17352 28
13882 17351 17353 28
13883 17351 17354 28
13884 17351 17355 28
13885 17356 17357 28
13886 17356 17358 28
13887 17356 17359 28
13888 17356 17360 28
13889 17361 17362 28
13890 17361 17363 28
13891 17361 17364 28
13892 17361 17365 28
13893 17366 17367 28
13894 17366 17368 28
13895 17366 17369 28
13896 17366 17370 28
13897 17371 17372 28
13898 17371 17373 28
13899 17371 17374 28
13900 17371 17375 28
13901 17376 17377 28
13902 17376 17378 28
13903 17376 17379 28
13904 17376 17380 28
13905 17381 17382 28
13906 17381 17383 28
13907 17381 17384 28
13908 17381 17385 28
13909 17386 17387 28
13910 17386 17388 28
13911 17386 17389 28
13912 17386 17390 28
13913 17391 17392 28
13914 17391 17393 28
13915 17391 17394 28
13916 17391 17395 28
13917 17396 17397 28
13918 17396 17398 28
13919 17396 17399 28
13920 17396 17400 28
13921 17401 17402 28
13922 17401 17403 28
13923 17401 17404 28
13924 17401 17405 28
13925 17406 17407 28
13926 17406 17408 28
13927 17406 17409 28
13928 17406 17410 28
13929 17411 17412 28
13930 17411 17413 28
13931 17411 17414 28
13932 17411 17415 28
13933 17416 17417 28
13934 17416 17418 28
13935 17416 17419 28
13936 17416 17420 28
13937 17421 17422 28
13938 17421 17423 28
13939 17421 17424 28
13940 17421 17425 28
13941 17426 17427 28
13942 17426 17428 28
13943 17426 17429 28
13944 17426 17430 28
13945 17431 17432 28
13946 17431 17433 28
13947 17431 17434 28
13948 17431 17435 28
13949 17436 17437 28
13950 17436 17438 28
13951 17436 17439 28
13952 17436 17440 28
13953 17441 17442 28
13954 17441 17443 28
13955 17441 17444 28
13956 17441 17445 28
13957 17446 17447 28
13958 17446 17448 28
13959 17446 17449 28
13960 17446 17450 28
13961 17451 17452 28
13962 17451 17453 28
13963 17451 17454 28
13964 17451 17455 28
13965 17456 17457 28
13966 17456 17458 28
13967 17456 17459 28
13968 17456 17460 28
13969 17461 17462 28
13970 17461 17463 28
13971 17461 17464 28
13972 17461 17465 28
13973 17466 17467 28
13974 17466 17468 28
13975 17466 17469 28
13976 17466 17470 28
13977 17471 17472 28
13978 17471 17473 28
13979 17471 17474 28
13980 17471 17475 28
13981 17476 17477 28
13982 17476 17478 28
13983 17476 17479 28
13984 17476 17480 28
13985 17481 17482 28
13986 17481 17483 28
13987 17481 17484 28
13988 17481 17485 28
13989 17486 17487 28
13990 17486 17488 28
13991 17486 17489 28
13992 17486 17490 28
13993 17491 17492 28
13994 17491 17493 28
13995 17491 17494 28
13996 17491 17495 28
13997 17496 17497 28
13998 17496 17498 28
13999 17496 17499 28
14000 17496 17500 28
14001 17501 17502 28
14002 17501 17503 28
14003 17501 17504 28
14004 17501 17505 28
14005 17506 17507 28
14006 17506 17508 28
14007 17506 17509 28
14008 17506 17510 28
14009 17511 17512 28
14010 17511 17513 28
14011 17511 17514 28
14012 17511 17515 28
14013 17516 17517 28
14014 17516 17518 28
14015 17516 17519 28
14016 17516 17520 28
14017 17521 17522 28
14018 17521 17523 28
14019 17521 17524 28
14020 17521 17525 28
14021 17526 17527 28
14022 17526 17528 28
14023 17526 17529 28
14024 17526 17530 28
14025 17531 17532 28
14026 17531 17533 28
14027 17531 17534 28
14028 17531 17535 28
14029 17536 17537 28
14030 17536 17538 28
14031 17536 17539 28
14032 17536 17540 28
14033 17541 17542 28
14034 17541 17543 28
14035 17541 17544 28
14036 17541 17545 28
14037 17546 17547 28
14038 17546 17548 28
14039 17546 17549 28
14040 17546 17550 28
14041 17551 17552 28
14042 17551 17553 28
14043 17551 17554 28
14044 17551 17555 28
14045 17556 17557 28
14046 17556 17558 28
14047 17556 17559 28
14048 17556 17560 28
14049 17561 17562 28
14050 17561 17563 28
14051 17561 17564 28
14052 17561 17565 28
14053 17566 17567 28
14054 17566 17568 28
14055 17566 17569 28
14056 17566 17570 28
14057 17571 17572 28
14058 17571 17573 28
14059 17571 17574 28
14060 17571 17575 28
14061 17576 17577 28
14062 17576 17578 28
14063 17576 17579 28
14064 17576 17580 28
14065 17581 17582 28
14066 17581 17583 28
14067 17581 17584 28
14068 17581 17585 28
14069 17586 17587 28
14070 17586 17588 28
14071 17586 17589 28
14072 17586 17590 28
14073 17591 17592 28
14074 17591 17593 28
14075 17591 17594 28
14076 17591 17595 28
14077 17596 17597 28
14078 17596 17598 28
14079 17596 17599 28
14080 17596 17600 28
14081 17601 17602 28
14082 17601 17603 28
14083 17601 17604 28
14084 17601 17605 28
14085 17606 17607 28
14086 17606 17608 28
14087 17606 17609 28
14088 17606 17610 28
14089 17611 17612 28
14090 17611 17613 28
14091 17611 17614 28
14092 17611 17615 28
14093 17616 17617 28
14094 17616 17618 28
14095 17616 17619 28
14096 17616 17620 28
14097 17621 17622 28
14098 17621 17623 28
14099 17621 17624 28
14100 17621 17625 28
14101 17626 17627 28
14102 17626 17628 28
14103 17626 17629 28
14104 17626 17630 28
14105 17631 17632 28
14106 17631 17633 28
14107 17631 17634 28
14108 17631 17635 28
14109 17636 17637 28
14110 17636 17638 28
14111 17636 17639 28
14112 17636 17640 28
14113 17641 17642 28
14114 17641 17643 28
14115 17641 17644 28
14116 17641 17645 28
14117 17646 17647 28
14118 17646 17648 28
14119 17646 17649 28
14120 17646 17650 28
14121 17651 17652 28
14122 17651 17653 28
14123 17651 17654 28
14124 17651 17655 28
14125 17656 17657 28
14126 17656 17658 28
14127 17656 17659 28
14128 17656 17660 28
14129 17661 17662 28
14130 17661 17663 28
14131 17661 17664 28
14132 17661 17665 28
14133 17666 17667 28
14134 17666 17668 28
14135 17666 17669 28
14136 17666 17670 28
14137 17671 17672 28
14138 17671 17673 28
14139 17671 17674 28
14140 17671 17675 28
14141 17676 17677 28
14142 17676 17678 28
14143 17676 17679 28
14144 17676 17680 28
14145 17681 17682 28
14146 17681 17683 28
14147 17681 17684 28
14148 17681 17685 28
14149 17686 17687 28
14150 17686 17688 28
14151 17686 17689 28
14152 17686 17690 28
14153 17691 17692 28
14154 17691 17693 28
14155 17691 17694 28
14156 17691 17695 28
14157 17696 17697 28
14158 17696 17698 28
14159 17696 17699 28
14160 17696 17700 28
14161 17701 17702 28
14162 17701 17703 28
14163 17701 17704 28
14164 17701 17705 28
14165 17706 17707 28
14166 17706 17708 28
14167 17706 17709 28
14168 17706 17710 28
14169 17711 17712 28
14170 17711 17713 28
14171 17711 17714 28
14172 17711 17715 28
14173 17716 17717 28
14174 17716 17718 28
14175 17716 17719 28
14176 17716 17720 28
14177 17721 17722 28
14178 17721 17723 28
14179 17721 17724 28
14180 17721 17725 28
14181 17726 17727 28
14182 17726 17728 28
14183 17726 17729 28
14184 17726 17730 28
14185 17731 17732 28
14186 17731 17733 28
14187 17731 17734 28
14188 17731 17735 28
14189 17736 17737 28
14190 17736 17738 28
14191 17736 17739 28
14192 17736 17740 28
14193 17741 17742 28
14194 17741 17743 28
14195 17741 17744 28
14196 17741 17745 28
14197 17746 17747 28
14198 17746 17748 28
14199 17746 17749 28
14200 17746 17750 28
14201 17751 17752 28
14202 17751 17753 28
14203 17751 17754 28
14204 17751 17755 28
14205 17756 17757 28
14206 17756 17758 28
14207 17756 17759 28
14208 17756 17760 28
14209 17761 17762 28
14210 17761 17763 28
14211 17761 17764 28
14212 17761 17765 28
14213 17766 17767 28
14214 17766 17768 28
14215 17766 17769 28
14216 17766 17770 28
14217 17771 17772 28
14218 17771 17773 28
14219 17771 17774 28
14220 17771 17775 28
14221 17776 17777 28
14222 17776 17778 28
14223 17776 17779 28
14224 17776 17780 28
14225 17781 17782 28
14226 17781 17783 28
14227 17781 17784 28
14228 17781 17785 28
14229 17786 17787 28
14230 17786 17788 28
14231 17786 17789 28
14232 17786 17790 28
14233 17791 17792 28
14234 17791 17793 28
14235 17791 17794 28
14236 17791 17795 28
14237 17796 17797 28
14238 17796 17798 28
14239 17796 17799 28
14240 17796 17800 28
14241 17801 17802 28
14242 17801 17803 28
14243 17801 17804 28
14244 17801 17805 28
14245 17806 17807 28
14246 17806 17808 28
14247 17806 17809 28
14248 17806 17810 28
14249 17811 17812 28
14250 17811 17813 28
14251 17811 17814 28
14252 17811 17815 28
14253 17816 17817 28
14254 17816 17818 28
14255 17816 17819 28
14256 17816 17820 28
14257 17821 17822 28
14258 17821 17823 28
14259 17821 17824 28
14260 17821 17825 28
14261 17826 17827 28
14262 17826 17828 28
14263 17826 17829 28
14264 17826 17830 28
14265 17831 17832 28
14266 17831 17833 28
14267 17831 17834 28
14268 17831 17835 28
14269 17836 17837 28
14270 17836 17838 28
14271 17836 17839 28
14272 17836 17840 28
14273 17841 17842 28
14274 17841 17843 28
14275 17841 17844 28
14276 17841 17845 28
14277 17846 17847 28
14278 17846 17848 28
14279 17846 17849 28
14280 17846 17850 28
14281 17851 17852 28
14282 17851 17853 28
14283 17851 17854 28
14284 17851 17855 28
14285 17856 17857 28
14286 17856 17858 28
14287 17856 17859 28
14288 17856 17860 28
14289 17861 17862 28
14290 17861 17863 28
14291 17861 17864 28
14292 17861 17865 28
14293 17866 17867 28
14294 17866 17868 28
14295 17866 17869 28
14296 17866 17870 28
14297 17871 17872 28
14298 17871 17873 28
14299 17871 17874 28
14300 17871 17875 28
14301 17876 17877 28
14302 17876 17878 28
14303 17876 17879 28
14304 17876 17880 28
14305 17881 17882 28
14306 17881 17883 28
14307 17881 17884 28
14308 17881 17885 28
14309 17886 17887 28
14310 17886 17888 28
14311 17886 17889 28
14312 17886 17890 28
14313 17891 17892 28
14314 17891 17893 28
14315 17891 17894 28
14316 17891 17895 28
14317 17896 17897 28
14318 17896 17898 28
14319 17896 17899 28
14320 17896 17900 28
14321 17901 17902 28
14322 17901 17903 28
14323 17901 17904 28
14324 17901 17905 28
14325 17906 17907 28
14326 17906 17908 28
14327 17906 17909 28
14328 17906 17910 28
14329 17911 17912 28
14330 17911 17913 28
14331 17911 17914 28
14332 17911 17915 28
14333 17916 17917 28
14334 17916 17918 28
14335 17916 17919 28
14336 17916 17920 28
14337 17921 17922 28
14338 17921 17923 28
14339 17921 17924 28
14340 17921 17925 28
14341 17926 17927 28
14342 17926 17928 28
14343 17926 17929 28
14344 17926 17930 28
14345 17931 17932 28
14346 17931 17933 28
14347 17931 17934 28
14348 17931 17935 28
14349 17936 17937 28
14350 17936 17938 28
14351 17936 17939 28
14352 17936 17940 28
14353 17941 17942 28
14354 17941 17943 28
14355 17941 17944 28
14356 17941 17945 28
14357 17946 17947 28
14358 17946 17948 28
14359 17946 17949 28
14360 17946 17950 28
14361 17951 17952 28
14362 17951 17953 28
14363 17951 17954 28
14364 17951 17955 28
14365 17956 17957 28
14366 17956 17958 28
14367 17956 17959 28
14368 17956 17960 28
14369 17961 17962 28
14370 17961 17963 28
14371 17961 17964 28
14372 17961 17965 28
14373 17966 17967 28
14374 17966 17968 28
14375 17966 17969 28
14376 17966 17970 28
14377 17971 17972 28
14378 17971 17973 28
14379 17971 17974 28
14380 17971 17975 28
14381 17976 17977 28
14382 17976 17978 28
14383 17976 17979 28
14384 17976 17980 28
14385 17981 17982 28
14386 17981 17983 28
14387 17981 17984 28
14388 17981 17985 28
14389 17986 17987 28
14390 17986 17988 28
14391 17986 17989 28
14392 17986 17990 28
14393 17991 17992 28
14394 17991 17993 28
14395 17991 17994 28
14396 17991 17995 28
14397 17996 17997 28
14398 17996 17998 28
14399 17996 17999 28
14400 17996 18000 28
14401 18001 18002 28
14402 18001 18003 28
14403 18001 18004 28
14404 18001 18005 28
14405 18006 18007 28
14406 18006 18008 28
14407 18006 18009 28
14408 18006 18010 28
14409 18011 18012 28
14410 18011 18013 28
14411 18011 18014 28
14412 18011 18015 28
14413 18016 18017 28
14414 18016 18018 28
14415 18016 18019 28
14416 18016 18020 28
14417 18021 18022 28
14418 18021 18023 28
14419 18021 18024 28
14420 18021 18025 28
14421 18026 18027 28
14422 18026 18028 28
14423 18026 18029 28
14424 18026 18030 28
14425 18031 18032 28
14426 18031 18033 28
14427 18031 18034 28
14428 18031 18035 28
14429 18036 18037 28
14430 18036 18038 28
14431 18036 18039 28
14432 18036 18040 28
14433 18041 18042 28
14434 18041 18043 28
14435 18041 18044 28
14436 18041 18045 28
14437 18046 18047 28
14438 18046 18048 28
14439 18046 18049 28
14440 18046 18050 28
14441 18051 18052 28
14442 18051 18053 28
14443 18051 18054 28
14444 18051 18055 28
14445 18056 18057 28
14446 18056 18058 28
14447 18056 18059 28
14448 18056 18060 28
14449 18061 18062 28
14450 18061 18063 28
14451 18061 18064 28
14452 18061 18065 28
14453 18066 18067 28
14454 18066 18068 28
14455 18066 18069 28
14456 18066 18070 28
14457 18071 18072 28
14458 18071 18073 28
14459 18071 18074 28
14460 18071 18075 28
14461 18076 18077 28
14462 18076 18078 28
14463 18076 18079 28
14464 18076 18080 28
14465 18081 18082 28
14466 18081 18083 28
14467 18081 18084 28
14468 18081 18085 28
14469 18086 18087 28
14470 18086 18088 28
14471 18086 18089 28
14472 18086 18090 28
14473 18091 18092 28
14474 18091 18093 28
14475 18091 18094 28
14476 18091 18095 28
14477 18096 18097 28
14478 18096 18098 28
14479 18096 18099 28
14480 18096 18100 28
14481 18101 18102 28
14482 18101 18103 28
14483 18101 18104 28
14484 18101 18105 28
14485 18106 18107 28
14486 18106 18108 28
14487 18106 18109 28
14488 18106 18110 28
14489 18111 18112 28
14490 18111 18113 28
14491 18111 18114 28
14492 18111 18115 28
14493 18116 18117 28
14494 18116 18118 28
14495 18116 18119 28
14496 18116 18120 28
14497 18121 18122 28
14498 18121 18123 28
14499 18121 18124 28
14500 18121 18125 28
14501 18126 18127 28
14502 18126 18128 28
14503 18126 18129 28
14504 18126 18130 28
14505 18131 18132 28
14506 18131 18133 28
14507 18131 18134 28
14508 18131 18135 28
14509 18136 18137 28
14510 18136 18138 28
14511 18136 18139 28
14512 18136 18140 28
14513 18141 18142 28
14514 18141 18143 28
14515 18141 18144 28
14516 18141 18145 28
14517 18146 18147 28
14518 18146 18148 28
14519 18146 18149 28
14520 18146 18150 28
14521 18151 18152 28
14522 18151 18153 28
14523 18151 18154 28
14524 18151 18155 28
14525 18156 18157 28
14526 18156 18158 28
14527 18156 18159 28
14528 18156 18160 28
14529 18161 18162 28
14530 18161 18163 28
14531 18161 18164 28
14532 18161 18165 28
14533 18166 18167 28
14534 18166 18168 28
14535 18166 18169 28
14536 18166 18170 28
14537 18171 18172 28
14538 18171 18173 28
14539 18171 18174 28
14540 18171 18175 28
14541 18176 18177 28
14542 18176 18178 28
14543 18176 18179 28
14544 18176 18180 28
14545 18181 18182 28
14546 18181 18183 28
14547 18181 18184 28
14548 18181 18185 28
14549 18186 18187 28
14550 18186 18188 28
14551 18186 18189 28
14552 18186 18190 28
14553 18191 18192 28
14554 18191 18193 28
14555 18191 18194 28
14556 18191 18195 28
14557 18196 18197 28
14558 18196 18198 28
14559 18196 18199 28
14560 18196 18200 28
14561 18201 18202 28
14562 18201 18203 28
14563 18201 18204 28
14564 18201 18205 28
14565 18206 18207 28
14566 18206 18208 28
14567 18206 18209 28
14568 18206 18210 28
14569 18211 18212 28
14570 18211 18213 28
14571 18211 18214 28
14572 18211 18215 28
14573 18216 18217 28
14574 18216 18218 28
14575 18216 18219 28
14576 18216 18220 28
14577 18221 18222 28
14578 18221 18223 28
14579 18221 18224 28
14580 18221 18225 28
14581 18226 18227 28
14582 18226 18228 28
14583 18226 18229 28
14584 18226 18230 28
14585 18231 18232 28
14586 18231 18233 28
14587 18231 18234 28
14588 18231 18235 28
14589 18236 18237 28
14590 18236 18238 28
14591 18236 18239 28
14592 18236 18240 28
14593 18241 18242 28
14594 18241 18243 28
14595 18241 18244 28
14596 18241 18245 28
14597 18246 18247 28
14598 18246 18248 28
14599 18246 18249 28
14600 18246 18250 28
14601 18251 18252 28
14602 18251 18253 28
14603 18251 18254 28
14604 18251 18255 28
14605 18256 18257 28
14606 18256 18258 28
14607 18256 18259 28
14608 18256 18260 28
14609 18261 18262 28
14610 18261 18263 28
14611 18261 18264 28
14612 18261 18265 28
14613 18266 18267 28
14614 18266 18268 28
14615 18266 18269 28
14616 18266 18270 28
14617 18271 18272 28
14618 18271 18273 28
14619 18271 18274 28
14620 18271 18275 28
14621 18276 18277 28
14622 18276 18278 28
14623 18276 18279 28
14624 18276 18280 28
14625 18281 18282 28
14626 18281 18283 28
14627 18281 18284 28
14628 18281 18285 28
14629 18286 18287 28
14630 18286 18288 28
14631 18286 18289 28
14632 18286 18290 28
14633 18291 18292 28
14634 18291 18293 28
14635 18291 18294 28
14636 18291 18295 28
14637 18296 18297 28
14638 18296 18298 28
14639 18296 18299 28
14640 18296 18300 28
14641 18301 18302 28
14642 18301 18303 28
14643 18301 18304 28
14644 18301 18305 28
14645 18306 18307 28
14646 18306 18308 28
14647 18306 18309 28
14648 18306 18310 28
14649 18311 18312 28
14650 18311 18313 28
14651 18311 18314 28
14652 18311 18315 28
14653 18316 18317 28
14654 18316 18318 28
14655 18316 18319 28
14656 18316 18320 28
14657 18321 18322 28
14658 18321 18323 28
14659 18321 18324 28
14660 18321 18325 28
14661 18326 18327 28
14662 18326 18328 28
14663 18326 18329 28
14664 18326 18330 28
14665 18331 18332 28
14666 18331 18333 28
14667 18331 18334 28
14668 18331 18335 28
14669 18336 18337 28
14670 18336 18338 28
14671 18336 18339 28
14672 18336 18340 28
14673 18341 18342 28
14674 18341 18343 28
14675 18341 18344 28
14676 18341 18345 28
14677 18346 18347 28
14678 18346 18348 28
14679 18346 18349 28
14680 18346 18350 28
14681 18351 18352 28
14682 18351 18353 28
14683 18351 18354 28
14684 18351 18355 28
14685 18356 18357 28
14686 18356 18358 28
14687 18356 18359 28
14688 18356 18360 28
14689 18361 18362 28
14690 18361 18363 28
14691 18361 18364 28
14692 18361 18365 28
14693 18366 18367 28
14694 18366 18368 28
14695 18366 18369 28
14696 18366 18370 28
14697 18371 18372 28
14698 18371 18373 28
14699 18371 18374 28
14700 18371 18375 28
14701 18376 18377 28
14702 18376 18378 28
14703 18376 18379 28
14704 18376 18380 28
14705 18381 18382 28
14706 18381 18383 28
14707 18381 18384 28
14708 18381 18385 28
14709 18386 18387 28
14710 18386 18388 28
14711 18386 18389 28
14712 18386 18390 28
14713 18391 18392 28
14714 18391 18393 28
14715 18391 18394 28
14716 18391 18395 28
14717 18396 18397 28
14718 18396 18398 28
14719 18396 18399 28
14720 18396 18400 28
14721 18401 18402 28
14722 18401 18403 28
14723 18401 18404 28
14724 18401 18405 28
14725 18406 18407 28
14726 18406 18408 28
14727 18406 18409 28
14728 18406 18410 28
14729 18411 18412 28
14730 18411 18413 28
14731 18411 18414 28
14732 18411 18415 28
14733 18416 18417 28
14734 18416 18418 28
14735 18416 18419 28
14736 18416 18420 28
14737 18421 18422 28
14738 18421 18423 28
14739 18421 18424 28
14740 18421 18425 28
14741 18426 18427 28
14742 18426 18428 28
14743 18426 18429 28
14744 18426 18430 28
14745 18431 18432 28
14746 18431 18433 28
14747 18431 18434 28
14748 18431 18435 28
14749 18436 18437 28
14750 18436 18438 28
14751 18436 18439 28
14752 18436 18440 28
14753 18441 18442 28
14754 18441 18443 28
14755 18441 18444 28
14756 18441 18445 28
14757 18446 18447 28
14758 18446 18448 28
14759 18446 18449 28
14760 18446 18450 28
14761 18451 18452 28
14762 18451 18453 28
14763 18451 18454 28
14764 18451 18455 28
14765 18456 18457 28
14766 18456 18458 28
14767 18456 18459 28
14768 18456 18460 28
14769 18461 18462 28
14770 18461 18463 28
14771 18461 18464 28
14772 18461 18465 28
14773 18466 18467 28
14774 18466 18468 28
14775 18466 18469 28
14776 18466 18470 28
14777 18471 18472 28
14778 18471 18473 28
14779 18471 18474 28
14780 18471 18475 28
14781 18476 18477 28
14782 18476 18478 28
14783 18476 18479 28
14784 18476 18480 28
14785 18481 18482 28
14786 18481 18483 28
14787 18481 18484 28
14788 18481 18485 28
14789 18486 18487 28
14790 18486 18488 28
14791 18486 18489 28
14792 18486 18490 28
14793 18491 18492 28
14794 18491 18493 28
14795 18491 18494 28
14796 18491 18495 28
14797 18496 18497 28
14798 18496 18498 28
14799 18496 18499 28
14800 18496 18500 28
14801 18501 18502 28
14802 18501 18503 28
14803 18501 18504 28
14804 18501 18505 28
14805 18506 18507 28
14806 18506 18508 28
14807 18506 18509 28
14808 18506 18510 28
14809 18511 18512 28
14810 18511 18513 28
14811 18511 18514 28
14812 18511 18515 28
14813 18516 18517 28
14814 18516 18518 28
14815 18516 18519 28
14816 18516 18520 28
14817 18521 18522 28
14818 18521 18523 28
14819 18521 18524 28
14820 18521 18525 28
14821 18526 18527 28
14822 18526 18528 28
14823 18526 18529 28
14824 18526 18530 28
14825 18531 18532 28
14826 18531 18533 28
14827 18531 18534 28
14828 18531 18535 28
14829 18536 18537 28
14830 18536 18538 28
14831 18536 18539 28
14832 18536 18540 28
14833 18541 18542 28
14834 18541 18543 28
14835 18541 18544 28
14836 18541 18545 28
14837 18546 18547 28
14838 18546 18548 28
14839 18546 18549 28
14840 18546 18550 28
14841 18551 18552 28
14842 18551 18553 28
14843 18551 18554 28
14844 18551 18555 28
14845 18556 18557 28
14846 18556 18558 28
14847 18556 18559 28
14848 18556 18560 28
14849 18561 18562 28
14850 18561 18563 28
14851 18561 18564 28
14852 18561 18565 28
14853 18566 18567 28
14854 18566 18568 28
14855 18566 18569 28
14856 18566 18570 28
14857 18571 18572 28
14858 18571 18573 28
14859 18571 18574 28
14860 18571 18575 28
14861 18576 18577 28
14862 18576 18578 28
14863 18576 18579 28
14864 18576 18580 28
14865 18581 18582 28
14866 18581 18583 28
14867 18581 18584 28
14868 18581 18585 28
14869 18586 18587 28
14870 18586 18588 28
14871 18586 18589 28
14872 18586 18590 28
14873 18591 18592 28
14874 18591 18593 28
14875 18591 18594 28
14876 18591 18595 28
14877 18596 18597 28
14878 18596 18598 28
14879 18596 18599 28
14880 18596 18600 28
14881 18601 18602 28
14882 18601 18603 28
14883 18601 18604 28
14884 18601 18605 28
14885 18606 18607 28
14886 18606 18608 28
14887 18606 18609 28
14888 18606 18610 28
14889 18611 18612 28
14890 18611 18613 28
14891 18611 18614 28
14892 18611 18615 28
14893 18616 18617 28
14894 18616 18618 28
14895 18616 18619 28
14896 18616 18620 28
14897 18621 18622 28
14898 18621 18623 28
14899 18621 18624 28
14900 18621 18625 28
14901 18626 18627 28
14902 18626 18628 28
14903 18626 18629 28
14904 18626 18630 28
14905 18631 18632 28
14906 18631 18633 28
14907 18631 18634 28
14908 18631 18635 28
14909 18636 18637 28
14910 18636 18638 28
14911 18636 18639 28
14912 18636 18640 28
14913 18641 18642 28
14914 18641 18643 28
14915 18641 18644 28
14916 18641 18645 28
14917 18646 18647 28
14918 18646 18648 28
14919 18646 18649 28
14920 18646 18650 28
14921 18651 18652 28
14922 18651 18653 28
14923 18651 18654 28
14924 18651 18655 28
14925 18656 18657 28
14926 18656 18658 28
14927 18656 18659 28
14928 18656 18660 28
14929 18661 18662 28
14930 18661 18663 28
14931 18661 18664 28
14932 18661 18665 28
14933 18666 18667 28
14934 18666 18668 28
14935 18666 18669 28
14936 18666 18670 28
14937 18671 18672 28
14938 18671 18673 28
14939 18671 18674 28
14940 18671 18675 28
14941 18676 18677 28
14942 18676 18678 28
14943 18676 18679 28
14944 18676 18680 28
14945 18681 18682 28
14946 18681 18683 28
14947 18681 18684 28
14948 18681 18685 28
14949 18686 18687 28
14950 18686 18688 28
14951 18686 18689 28
14952 18686 18690 28
14953 18691 18692 28
14954 18691 18693 28
14955 18691 18694 28
14956 18691 18695 28
14957 18696 18697 28
14958 18696 18698 28
14959 18696 18699 28
14960 18696 18700 28
14961 18701 18702 28
14962 18701 18703 28
14963 18701 18704 28
14964 18701 18705 28
14965 18706 18707 28
14966 18706 18708 28
14967 18706 18709 28
14968 18706 18710 28
14969 18711 18712 28
14970 18711 18713 28
14971 18711 18714 28
14972 18711 18715 28
14973 18716 18717 28
14974 18716 18718 28
14975 18716 18719 28
14976 18716 18720 28
14977 18721 18722 28
14978 18721 18723 28
14979 18721 18724 28
14980 18721 18725 28
14981 18726 18727 28
14982 18726 18728 28
14983 18726 18729 28
14984 18726 18730 28
14985 18731 18732 28
14986 18731 18733 28
14987 18731 18734 28
14988 18731 18735 28
14989 18736 18737 28
14990 18736 18738 28
14991 18736 18739 28
14992 18736 18740 28
14993 18741 18742 28
14994 18741 18743 28
14995 18741 18744 28
14996 18741 18745 28
14997 18746 18747 28
14998 18746 18748 28
14999 18746 18749 28
15000 18746 18750 28
15001 18751 18752 28
15002 18751 18753 28
15003 18751 18754 28
15004 18751 18755 28
15005 18756 18757 28
15006 18756 18758 28
15007 18756 18759 28
15008 18756 18760 28
15009 18761 18762 28
15010 18761 18763 28
15011 18761 18764 28
15012 18761 18765 28
15013 18766 18767 28
15014 18766 18768 28
15015 18766 18769 28
15016 18766 18770 28
15017 18771 18772 28
15018 18771 18773 28
15019 18771 18774 28
15020 18771 18775 28
15021 18776 18777 28
15022 18776 18778 28
15023 18776 18779 28
15024 18776 18780 28
15025 18781 18782 28
15026 18781 18783 28
15027 18781 18784 28
15028 18781 18785 28
15029 18786 18787 28
15030 18786 18788 28
15031 18786 18789 28
15032 18786 18790 28
15033 18791 18792 28
15034 18791 18793 28
15035 18791 18794 28
15036 18791 18795 28
15037 18796 18797 28
15038 18796 18798 28
15039 18796 18799 28
15040 18796 18800 28
15041 18801 18802 28
15042 18801 18803 28
15043 18801 18804 28
15044 18801 18805 28
15045 18806 18807 28
15046 18806 18808 28
15047 18806 18809 28
15048 18806 18810 28
15049 18811 18812 28
15050 18811 18813 28
15051 18811 18814 28
15052 18811 18815 28
15053 18816 18817 28
15054 18816 18818 28
15055 18816 18819 28
15056 18816 18820 28
15057 18821 18822 28
15058 18821 18823 28
15059 18821 18824 28
15060 18821 18825 28
15061 18826 18827 28
15062 18826 18828 28
15063 18826 18829 28
15064 18826 18830 28
15065 18831 18832 28
15066 18831 18833 28
15067 18831 18834 28
15068 18831 18835 28
15069 18836 18837 28
15070 18836 18838 28
15071 18836 18839 28
15072 18836 18840 28
15073 18841 18842 28
15074 18841 18843 28
15075 18841 18844 28
15076 18841 18845 28
15077 18846 18847 28
15078 18846 18848 28
15079 18846 18849 28
15080 18846 18850 28
15081 18851 18852 28
15082 18851 18853 28
15083 18851 18854 28
15084 18851 18855 28
15085 18856 18857 28
15086 18856 18858 28
15087 18856 18859 28
15088 18856 18860 28
15089 18861 18862 28
15090 18861 18863 28
15091 18861 18864 28
15092 18861 18865 28
15093 18866 18867 28
15094 18866 18868 28
15095 18866 18869 28
15096 18866 18870 28
15097 18871 18872 28
15098 18871 18873 28
15099 18871 18874 28
15100 18871 18875 28
15101 18876 18877 28
15102 18876 18878 28
15103 18876 18879 28
15104 18876 18880 28
15105 18881 18882 28
15106 18881 18883 28
15107 18881 18884 28
15108 18881 18885 28
15109 18886 18887 28
15110 18886 18888 28
15111 18886 18889 28
15112 18886 18890 28
15113 18891 18892 28
15114 18891 18893 28
15115 18891 18894 28
15116 18891 18895 28
15117 18896 18897 28
15118 18896 18898 28
15119 18896 18899 28
15120 18896 18900 28
15121 18901 18902 28
15122 18901 18903 28
15123 18901 18904 28
15124 18901 18905 28
15125 18906 18907 28
15126 18906 18908 28
15127 18906 18909 28
15128 18906 18910 28
15129 18911 18912 28
15130 18911 18913 28
15131 18911 18914 28
15132 18911 18915 28
15133 18916 18917 28
15134 18916 18918 28
15135 18916 18919 28
15136 18916 18920 28
15137 18921 18922 28
15138 18921 18923 28
15139 18921 18924 28
15140 18921 18925 28
15141 18926 18927 28
15142 18926 18928 28
15143 18926 18929 28
15144 18926 18930 28
15145 18931 18932 28
15146 18931 18933 28
15147 18931 18934 28
15148 18931 18935 28
15149 18936 18937 28
15150 18936 18938 28
15151 18936 18939 28
15152 18936 18940 28
15153 18941 18942 28
15154 18941 18943 28
15155 18941 18944 28
15156 18941 18945 28
15157 18946 18947 28
15158 18946 18948 28
15159 18946 18949 28
15160 18946 18950 28
15161 18951 18952 28
15162 18951 18953 28
15163 18951 18954 28
15164 18951 18955 28
15165 18956 18957 28
15166 18956 18958 28
15167 18956 18959 28
15168 18956 18960 28
15169 18961 18962 28
15170 18961 18963 28
15171 18961 18964 28
15172 18961 18965 28
15173 18966 18967 28
15174 18966 18968 28
15175 18966 18969 28
15176 18966 18970 28
15177 18971 18972 28
15178 18971 18973 28
15179 18971 18974 28
15180 18971 18975 28
15181 18976 18977 28
15182 18976 18978 28
15183 18976 18979 28
15184 18976 18980 28
15185 18981 18982 28
15186 18981 18983 28
15187 18981 18984 28
15188 18981 18985 28
15189 18986 18987 28
15190 18986 18988 28
15191 18986 18989 28
15192 18986 18990 28
15193 18991 18992 28
15194 18991 18993 28
15195 18991 18994 28
15196 18991 18995 28
15197 18996 18997 28
15198 18996 18998 28
15199 18996 18999 28
15200 18996 19000 28
15201 19001 19002 28
15202 19001 19003 28
15203 19001 19004 28
15204 19001 19005 28
15205 19006 19007 28
15206 19006 19008 28
15207 19006 19009 28
15208 19006 19010 28
15209 19011 19012 28
15210 19011 19013 28
15211 19011 19014 28
15212 19011 19015 28
15213 19016 19017 28
15214 19016 19018 28
15215 19016 19019 28
15216 19016 19020 28
15217 19021 19022 28
15218 19021 19023 28
15219 19021 19024 28
15220 19021 19025 28
15221 19026 19027 28
15222 19026 19028 28
15223 19026 19029 28
15224 19026 19030 28
15225 19031 19032 28
15226 19031 19033 28
15227 19031 19034 28
15228 19031 19035 28
15229 19036 19037 28
15230 19036 19038 28
15231 19036 19039 28
15232 19036 19040 28
15233 19041 19042 28
15234 19041 19043 28
15235 19041 19044 28
15236 19041 19045 28
15237 19046 19047 28
15238 19046 19048 28
15239 19046 19049 28
15240 19046 19050 28
15241 19051 19052 28
15242 19051 19053 28
15243 19051 19054 28
15244 19051 19055 28
15245 19056 19057 28
15246 19056 19058 28
15247 19056 19059 28
15248 19056 19060 28
15249 19061 19062 28
15250 19061 19063 28
15251 19061 19064 28
15252 19061 19065 28
15253 19066 19067 28
15254 19066 19068 28
15255 19066 19069 28
15256 19066 19070 28
15257 19071 19072 28
15258 19071 19073 28
15259 19071 19074 28
15260 19071 19075 28
15261 19076 19077 28
15262 19076 19078 28
15263 19076 19079 28
15264 19076 19080 28
15265 19081 19082 28
15266 19081 19083 28
15267 19081 19084 28
15268 19081 19085 28
15269 19086 19087 28
15270 19086 19088 28
15271 19086 19089 28
15272 19086 19090 28
15273 19091 19092 28
15274 19091 19093 28
15275 19091 19094 28
15276 19091 19095 28
15277 19096 19097 28
15278 19096 19098 28
15279 19096 19099 28
15280 19096 19100 28
15281 19101 19102 28
15282 19101 19103 28
15283 19101 19104 28
15284 19101 19105 28
15285 19106 19107 28
15286 19106 19108 28
15287 19106 19109 28
15288 19106 19110 28
15289 19111 19112 28
15290 19111 19113 28
15291 19111 19114 28
15292 19111 19115 28
15293 19116 19117 28
15294 19116 19118 28
15295 19116 19119 28
15296 19116 19120 28
15297 19121 19122 28
15298 19121 19123 28
15299 19121 19124 28
15300 19121 19125 28
15301 19126 19127 28
15302 19126 19128 28
15303 19126 19129 28
15304 19126 19130 28
15305 19131 19132 28
15306 19131 19133 28
15307 19131 19134 28
15308 19131 19135 28
15309 19136 19137 28
15310 19136 19138 28
15311 19136 19139 28
15312 19136 19140 28
15313 19141 19142 28
15314 19141 19143 28
15315 19141 19144 28
15316 19141 19145 28
15317 19146 19147 28
15318 19146 19148 28
15319 19146 19149 28
15320 19146 19150 28
15321 19151 19152 28
15322 19151 19153 28
15323 19151 19154 28
15324 19151 19155 28
15325 19156 19157 28
15326 19156 19158 28
15327 19156 19159 28
15328 19156 19160 28
15329 19161 19162 28
15330 19161 19163 28
15331 19161 19164 28
15332 19161 19165 28
15333 19166 19167 28
15334 19166 19168 28
15335 19166 19169 28
15336 19166 19170 28
15337 19171 19172 28
15338 19171 19173 28
15339 19171 19174 28
15340 19171 19175 28
15341 19176 19177 28
15342 19176 19178 28
15343 19176 19179 28
15344 19176 19180 28
15345 19181 19182 28
15346 19181 19183 28
15347 19181 19184 28
15348 19181 19185 28
15349 19186 19187 28
15350 19186 19188 28
15351 19186 19189 28
15352 19186 19190 28
15353 19191 19192 28
15354 19191 19193 28
15355 19191 19194 28
15356 19191 19195 28
15357 19196 19197 28
15358 19196 19198 28
15359 19196 19199 28
15360 19196 19200 28
15361 19201 19202 28
15362 19201 19203 28
15363 19201 19204 28
15364 19201 19205 28
15365 19206 19207 28
15366 19206 19208 28
15367 19206 19209 28
15368 19206 19210 28
15369 19211 19212 28
15370 19211 19213 28
15371 19211 19214 28
15372 19211 19215 28
15373 19216 19217 28
15374 19216 19218 28
15375 19216 19219 28
15376 19216 19220 28
15377 19221 19222 28
15378 19221 19223 28
15379 19221 19224 28
15380 19221 19225 28
15381 19226 19227 28
15382 19226 19228 28
15383 19226 19229 28
15384 19226 19230 28
15385 19231 19232 28
15386 19231 19233 28
15387 19231 19234 28
15388 19231 19235 28
15389 19236 19237 28
15390 19236 19238 28
15391 19236 19239 28
15392 19236 19240 28
15393 19241 19242 28
15394 19241 19243 28
15395 19241 19244 28
15396 19241 19245 28
15397 19246 19247 28
15398 19246 19248 28
15399 19246 19249 28
15400 19246 19250 28
15401 19251 19252 28
15402 19251 19253 28
15403 19251 19254 28
15404 19251 19255 28
15405 19256 19257 28
15406 19256 19258 28
15407 19256 19259 28
15408 19256 19260 28
15409 19261 19262 28
15410 19261 19263 28
15411 19261 19264 28
15412 19261 19265 28
15413 19266 19267 28
15414 19266 19268 28
15415 19266 19269 28
15416 19266 19270 28
15417 19271 19272 28
15418 19271 19273 28
15419 19271 19274 28
15420 19271 19275 28
15421 19276 19277 28
15422 19276 19278 28
15423 19276 19279 28
15424 19276 19280 28
15425 19281 19282 28
15426 19281 19283 28
15427 19281 19284 28
15428 19281 19285 28
15429 19286 19287 28
15430 19286 19288 28
15431 19286 19289 28
15432 19286 19290 28
15433 19291 19292 28
15434 19291 19293 28
15435 19291 19294 28
15436 19291 19295 28
15437 19296 19297 28
15438 19296 19298 28
15439 19296 19299 28
15440 19296 19300 28
15441 19301 19302 28
15442 19301 19303 28
15443 19301 19304 28
15444 19301 19305 28
15445 19306 19307 28
15446 19306 19308 28
15447 19306 19309 28
15448 19306 19310 28
15449 19311 19312 28
15450 19311 19313 28
15451 19311 19314 28
15452 19311 19315 28
15453 19316 19317 28
15454 19316 19318 28
15455 19316 19319 28
15456 19316 19320 28
15457 19321 19322 28
15458 19321 19323 28
15459 19321 19324 28
15460 19321 19325 28
15461 19326 19327 28
15462 19326 19328 28
15463 19326 19329 28
15464 19326 19330 28
15465 19331 19332 28
15466 19331 19333 28
15467 19331 19334 28
15468 19331 19335 28
15469 19336 19337 28
15470 19336 19338 28
15471 19336 19339 28
15472 19336 19340 28
15473 19341 19342 28
15474 19341 19343 28
15475 19341 19344 28
15476 19341 19345 28
15477 19346 19347 28
15478 19346 19348 28
15479 19346 19349 28
15480 19346 19350 28
15481 19351 19352 28
15482 19351 19353 28
15483 19351 19354 28
15484 19351 19355 28
15485 19356 19357 28
15486 19356 19358 28
15487 19356 19359 28
15488 19356 19360 28
15489 19361 19362 28
15490 19361 19363 28
15491 19361 19364 28
15492 19361 19365 28
15493 19366 19367 28
15494 19366 19368 28
15495 19366 19369 28
15496 19366 19370 28
15497 19371 19372 28
15498 19371 19373 28
15499 19371 19374 28
15500 19371 19375 28
15501 19376 19377 28
15502 19376 19378 28
15503 19376 19379 28
15504 19376 19380 28
15505 19381 19382 28
15506 19381 19383 28
15507 19381 19384 28
15508 19381 19385 28
15509 19386 19387 28
15510 19386 19388 28
15511 19386 19389 28
15512 19386 19390 28
15513 19391 19392 28
15514 19391 19393 28
15515 19391 19394 28
15516 19391 19395 28
15517 19396 19397 28
15518 19396 19398 28
15519 19396 19399 28
15520 19396 19400 28
15521 19401 19402 28
15522 19401 19403 28
15523 19401 19404 28
15524 19401 19405 28
15525 19406 19407 28
15526 19406 19408 28
15527 19406 19409 28
15528 19406 19410 28
15529 19411 19412 28
15530 19411 19413 28
15531 19411 19414 28
15532 19411 19415 28
15533 19416 19417 28
15534 19416 19418 28
15535 19416 19419 28
15536 19416 19420 28
15537 19421 19422 28
15538 19421 19423 28
15539 19421 19424 28
15540 19421 19425 28
15541 19426 19427 28
15542 19426 19428 28
15543 19426 19429 28
15544 19426 19430 28
15545 19431 19432 28
15546 19431 19433 28
15547 19431 19434 28
15548 19431 19435 28
15549 19436 19437 28
15550 19436 19438 28
15551 19436 19439 28
15552 19436 19440 28
15553 19441 19442 28
15554 19441 19443 28
15555 19441 19444 28
15556 19441 19445 28
15557 19446 19447 28
15558 19446 19448 28
15559 19446 19449 28
15560 19446 19450 28
15561 19451 19452 28
15562 19451 19453 28
15563 19451 19454 28
15564 19451 19455 28
15565 19456 19457 28
15566 19456 19458 28
15567 19456 19459 28
15568 19456 19460 28
15569 19461 19462 28
15570 19461 19463 28
15571 19461 19464 28
15572 19461 19465 28
15573 19466 19467 28
15574 19466 19468 28
15575 19466 19469 28
15576 19466 19470 28
15577 19471 19472 28
15578 19471 19473 28
15579 19471 19474 28
15580 19471 19475 28
15581 19476 19477 28
15582 19476 19478 28
15583 19476 19479 28
15584 19476 19480 28
15585 19481 19482 28
15586 19481 19483 28
15587 19481 19484 28
15588 19481 19485 28
15589 19486 19487 28
15590 19486 19488 28
15591 19486 19489 28
15592 19486 19490 28
15593 19491 19492 28
15594 19491 19493 28
15595 19491 19494 28
15596 19491 19495 28
15597 19496 19497 28
15598 19496 19498 28
15599 19496 19499 28
15600 19496 19500 28
15601 19501 19502 28
15602 19501 19503 28
15603 19501 19504 28
15604 19501 19505 28
15605 19506 19507 28
15606 19506 19508 28
15607 19506 19509 28
15608 19506 19510 28
15609 19511 19512 28
15610 19511 19513 28
15611 19511 19514 28
15612 19511 19515 28
15613 19516 19517 28
15614 19516 19518 28
15615 19516 19519 28
15616 19516 19520 28
15617 19521 19522 28
15618 19521 19523 28
15619 19521 19524 28
15620 19521 19525 28
15621 19526 19527 28
15622 19526 19528 28
15623 19526 19529 28
15624 19526 19530 28
15625 19531 19532 28
15626 19531 19533 28
15627 19531 19534 28
15628 19531 19535 28
15629 19536 19537 28
15630 19536 19538 28
15631 19536 19539 28
15632 19536 19540 28
15633 19541 19542 28
15634 19541 19543 28
15635 19541 19544 28
15636 19541 19545 28
15637 19546 19547 28
15638 19546 19548 28
15639 19546 19549 28
15640 19546 19550 28
15641 19551 19552 28
15642 19551 19553 28
15643 19551 19554 28
15644 19551 19555 28
15645 19556 19557 28
15646 19556 19558 28
15647 19556 19559 28
15648 19556 19560 28
15649 19561 19562 28
15650 19561 19563 28
15651 19561 19564 28
15652 19561 19565 28
15653 19566 19567 28
15654 19566 19568 28
15655 19566 19569 28
15656 19566 19570 28
15657 19571 19572 28
15658 19571 19573 28
15659 19571 19574 28
15660 19571 19575 28
15661 19576 19577 28
15662 19576 19578 28
15663 19576 19579 28
15664 19576 19580 28
15665 19581 19582 28
15666 19581 19583 28
15667 19581 19584 28
15668 19581 19585 28
15669 19586 19587 28
15670 19586 19588 28
15671 19586 19589 28
15672 19586 19590 28
15673 19591 19592 28
15674 19591 19593 28
15675 19591 19594 28
15676 19591 19595 28
15677 19596 19597 28
15678 19596 19598 28
15679 19596 19599 28
15680 19596 19600 28
15681 19601 19602 28
15682 19601 19603 28
15683 19601 19604 28
15684 19601 19605 28
15685 19606 19607 28
15686 19606 19608 28
15687 19606 19609 28
15688 19606 19610 28
15689 19611 19612 28
15690 19611 19613 28
15691 19611 19614 28
15692 19611 19615 28
15693 19616 19617 28
15694 19616 19618 28
15695 19616 19619 28
15696 19616 19620 28
15697 19621 19622 28
15698 19621 19623 28
15699 19621 19624 28
15700 19621 19625 28
15701 19626 19627 28
15702 19626 19628 28
15703 19626 19629 28
15704 19626 19630 28
15705 19631 19632 28
15706 19631 19633 28
15707 19631 19634 28
15708 19631 19635 28
15709 19636 19637 28
15710 19636 19638 28
15711 19636 19639 28
15712 19636 19640 28
15713 19641 19642 28
15714 19641 19643 28
15715 19641 19644 28
15716 19641 19645 28
15717 19646 19647 28
15718 19646 19648 28
15719 19646 19649 28
15720 19646 19650 28
15721 19651 19652 28
15722 19651 19653 28
15723 19651 19654 28
15724 19651 19655 28
15725 19656 19657 28
15726 19656 19658 28
15727 19656 19659 28
15728 19656 19660 28
15729 19661 19662 28
15730 19661 19663 28
15731 19661 19664 28
15732 19661 19665 28
15733 19666 19667 28
15734 19666 19668 28
15735 19666 19669 28
15736 19666 19670 28
15737 19671 19672 28
15738 19671 19673 28
15739 19671 19674 28
15740 19671 19675 28
15741 19676 19677 28
15742 19676 19678 28
15743 19676 19679 28
15744 19676 19680 28
15745 19681 19682 28
15746 19681 19683 28
15747 19681 19684 28
15748 19681 19685 28
15749 19686 19687 28
15750 19686 19688 28
15751 19686 19689 28
15752 19686 19690 28
15753 19691 19692 28
15754 19691 19693 28
15755 19691 19694 28
15756 19691 19695 28
15757 19696 19697 28
15758 19696 19698 28
15759 19696 19699 28
15760 19696 19700 28
15761 19701 19702 28
15762 19701 19703 28
15763 19701 19704 28
15764 19701 19705 28
15765 19706 19707 28
15766 19706 19708 28
15767 19706 19709 28
15768 19706 19710 28
15769 19711 19712 28
15770 19711 19713 28
15771 19711 19714 28
15772 19711 19715 28
15773 19716 19717 28
15774 19716 19718 28
15775 19716 19719 28
15776 19716 19720 28
15777 19721 19722 28
15778 19721 19723 28
15779 19721 19724 28
15780 19721 19725 28
15781 19726 19727 28
15782 19726 19728 28
15783 19726 19729 28
15784 19726 19730 28
15785 19731 19732 28
15786 19731 19733 28
15787 19731 19734 28
15788 19731 19735 28
15789 19736 19737 28
15790 19736 19738 28
15791 19736 19739 28
15792 19736 19740 28
15793 19741 19742 28
15794 19741 19743 28
15795 19741 19744 28
15796 19741 19745 28
15797 19746 19747 28
15798 19746 19748 28
15799 19746 19749 28
15800 19746 19750 28
15801 19751 19752 28
15802 19751 19753 28
15803 19751 19754 28
15804 19751 19755 28
15805 19756 19757 28
15806 19756 19758 28
15807 19756 19759 28
15808 19756 19760 28
15809 19761 19762 28
15810 19761 19763 28
15811 19761 19764 28
15812 19761 19765 28
15813 19766 19767 28
15814 19766 19768 28
15815 19766 19769 28
15816 19766 19770 28
15817 19771 19772 28
15818 19771 19773 28
15819 19771 19774 28
15820 19771 19775 28
15821 19776 19777 28
15822 19776 19778 28
15823 19776 19779 28
15824 19776 19780 28
15825 19781 19782 28
15826 19781 19783 28
15827 19781 19784 28
15828 19781 19785 28
15829 19786 19787 28
15830 19786 19788 28
15831 19786 19789 28
15832 19786 19790 28
15833 19791 19792 28
15834 19791 19793 28
15835 19791 19794 28
15836 19791 19795 28
15837 19796 19797 28
15838 19796 19798 28
15839 19796 19799 28
15840 19796 19800 28
15841 19801 19802 28
15842 19801 19803 28
15843 19801 19804 28
15844 19801 19805 28
15845 19806 19807 28
15846 19806 19808 28
15847 19806 19809 28
15848 19806 19810 28
15849 19811 19812 28
15850 19811 19813 28
15851 19811 19814 28
15852 19811 19815 28
15853 19816 19817 28
15854 19816 19818 28
15855 19816 19819 28
15856 19816 19820 28
15857 19821 19822 28
15858 19821 19823 28
15859 19821 19824 28
15860 19821 19825 28
15861 19826 19827 28
15862 19826 19828 28
15863 19826 19829 28
15864 19826 19830 28
15865 19831 19832 28
15866 19831 19833 28
15867 19831 19834 28
15868 19831 19835 28
15869 19836 19837 28
15870 19836 19838 28
15871 19836 19839 28
15872 19836 19840 28
15873 19841 19842 28
15874 19841 19843 28
15875 19841 19844 28
15876 19841 19845 28
15877 19846 19847 28
15878 19846 19848 28
15879 19846 19849 28
15880 19846 19850 28
15881 19851 19852 28
15882 19851 19853 28
15883 19851 19854 28
15884 19851 19855 28
15885 19856 19857 28
15886 19856 19858 28
15887 19856 19859 28
15888 19856 19860 28
15889 19861 19862 28
15890 19861 19863 28
15891 19861 19864 28
15892 19861 19865 28
15893 19866 19867 28
15894 19866 19868 28
15895 19866 19869 28
15896 19866 19870 28
15897 19871 19872 28
15898 19871 19873 28
15899 19871 19874 28
15900 19871 19875 28
15901 19876 19877 28
15902 19876 19878 28
15903 19876 19879 28
15904 19876 19880 28
15905 19881 19882 28
15906 19881 19883 28
15907 19881 19884 28
15908 19881 19885 28
15909 19886 19887 28
15910 19886 19888 28
15911 19886 19889 28
15912 19886 19890 28
15913 19891 19892 28
15914 19891 19893 28
15915 19891 19894 28
15916 19891 19895 28
15917 19896 19897 28
15918 19896 19898 28
15919 19896 19899 28
15920 19896 19900 28
15921 19901 19902 28
15922 19901 19903 28
15923 19901 19904 28
15924 19901 19905 28
15925 19906 19907 28
15926 19906 19908 28
15927 19906 19909 28
15928 19906 19910 28
15929 19911 19912 28
15930 19911 19913 28
15931 19911 19914 28
15932 19911 19915 28
15933 19916 19917 28
15934 19916 19918 28
15935 19916 19919 28
15936 19916 19920 28
15937 19921 19922 28
15938 19921 19923 28
15939 19921 19924 28
15940 19921 19925 28
15941 19926 19927 28
15942 19926 19928 28
15943 19926 19929 28
15944 19926 19930 28
15945 19931 19932 28
15946 19931 19933 28
15947 19931 19934 28
15948 19931 19935 28
15949 19936 19937 28
15950 19936 19938 28
15951 19936 19939 28
15952 19936 19940 28
15953 19941 19942 28
15954 19941 19943 28
15955 19941 19944 28
15956 19941 19945 28
15957 19946 19947 28
15958 19946 19948 28
15959 19946 19949 28
15960 19946 19950 28
15961 19951 19952 28
15962 19951 19953 28
15963 19951 19954 28
15964 19951 19955 28
15965 19956 19957 28
15966 19956 19958 28
15967 19956 19959 28
15968 19956 19960 28
15969 19961 19962 28
15970 19961 19963 28
15971 19961 19964 28
15972 19961 19965 28
15973 19966 19967 28
15974 19966 19968 28
15975 19966 19969 28
15976 19966 19970 28
15977 19971 19972 28
15978 19971 19973 28
15979 19971 19974 28
15980 19971 19975 28
15981 19976 19977 28
15982 19976 19978 28
15983 19976 19979 28
15984 19976 19980 28
15985 19981 19982 28
15986 19981 19983 28
15987 19981 19984 28
15988 19981 19985 28
15989 19986 19987 28
15990 19986 19988 28
15991 19986 19989 28
15992 19986 19990 28
15993 19991 19992 28
15994 19991 19993 28
15995 19991 19994 28
15996 19991 19995 28
15997 19996 19997 28
15998 19996 19998 28
15999 19996 19999 28
16000 19996 20000 28
16001 20001 20002 28
16002 20001 20003 28
16003 20001 20004 28
16004 20001 20005 28
16005 20006 20007 28
16006 20006 20008 28
16007 20006 20009 28
16008 20006 20010 28
16009 20011 20012 28
16010 20011 20013 28
16011 20011 20014 28
16012 20011 20015 28
16013 20016 20017 28
16014 20016 20018 28
16015 20016 20019 28
16016 20016 20020 28
16017 20021 20022 28
16018 20021 20023 28
16019 20021 20024 28
16020 20021 20025 28
16021 20026 20027 28
16022 20026 20028 28
16023 20026 20029 28
16024 20026 20030 28
16025 20031 20032 28
16026 20031 20033 28
16027 20031 20034 28
16028 20031 20035 28
16029 20036 20037 28
16030 20036 20038 28
16031 20036 20039 28
16032 20036 20040 28
16033 20041 20042 28
16034 20041 20043 28
16035 20041 20044 28
16036 20041 20045 28
16037 20046 20047 28
16038 20046 20048 28
16039 20046 20049 28
16040 20046 20050 28
16041 20051 20052 28
16042 20051 20053 28
16043 20051 20054 28
16044 20051 20055 28
16045 20056 20057 28
16046 20056 20058 28
16047 20056 20059 28
16048 20056 20060 28
16049 20061 20062 28
16050 20061 20063 28
16051 20061 20064 28
16052 20061 20065 28
16053 20066 20067 28
16054 20066 20068 28
16055 20066 20069 28
16056 20066 20070 28
16057 20071 20072 28
16058 20071 20073 28
16059 20071 20074 28
16060 20071 20075 28
16061 20076 20077 28
16062 20076 20078 28
16063 20076 20079 28
16064 20076 20080 28
16065 20081 20082 28
16066 20081 20083 28
16067 20081 20084 28
16068 20081 20085 28
16069 20086 20087 28
16070 20086 20088 28
16071 20086 20089 28
16072 20086 20090 28
16073 20091 20092 28
16074 20091 20093 28
16075 20091 20094 28
16076 20091 20095 28
16077 20096 20097 28
16078 20096 20098 28
16079 20096 20099 28
16080 20096 20100 28
16081 20101 20102 28
16082 20101 20103 28
16083 20101 20104 28
16084 20101 20105 28
16085 20106 20107 28
16086 20106 20108 28
16087 20106 20109 28
16088 20106 20110 28
16089 20111 20112 28
16090 20111 20113 28
16091 20111 20114 28
16092 20111 20115 28
16093 20116 20117 28
16094 20116 20118 28
16095 20116 20119 28
16096 20116 20120 28
16097 20121 20122 28
16098 20121 20123 28
16099 20121 20124 28
16100 20121 20125 28
16101 20126 20127 28
16102 20126 20128 28
16103 20126 20129 28
16104 20126 20130 28
16105 20131 20132 28
16106 20131 20133 28
16107 20131 20134 28
16108 20131 20135 28
16109 20136 20137 28
16110 20136 20138 28
16111 20136 20139 28
16112 20136 20140 28
16113 20141 20142 28
16114 20141 20143 28
16115 20141 20144 28
16116 20141 20145 28
16117 20146 20147 28
16118 20146 20148 28
16119 20146 20149 28
16120 20146 20150 28
16121 20151 20152 28
16122 20151 20153 28
16123 20151 20154 28
16124 20151 20155 28
16125 20156 20157 28
16126 20156 20158 28
16127 20156 20159 28
16128 20156 20160 28
16129 20161 20162 28
16130 20161 20163 28
16131 20161 20164 28
16132 20161 20165 28
16133 20166 20167 28
16134 20166 20168 28
16135 20166 20169 28
16136 20166 20170 28
16137 20171 20172 28
16138 20171 20173 28
16139 20171 20174 28
16140 20171 20175 28
16141 20176 20177 28
16142 20176 20178 28
16143 20176 20179 28
16144 20176 20180 28
16145 20181 20182 28
16146 20181 20183 28
16147 20181 20184 28
16148 20181 20185 28
16149 20186 20187 28
16150 20186 20188 28
16151 20186 20189 28
16152 20186 20190 28
16153 20191 20192 28
16154 20191 20193 28
16155 20191 20194 28
16156 20191 20195 28
16157 20196 20197 28
16158 20196 20198 28
16159 20196 20199 28
16160 20196 20200 28
16161 20201 20202 28
16162 20201 20203 28
16163 20201 20204 28
16164 20201 20205 28
16165 20206 20207 28
16166 20206 20208 28
16167 20206 20209 28
16168 20206 20210 28
16169 20211 20212 28
16170 20211 20213 28
16171 20211 20214 28
16172 20211 20215 28
16173 20216 20217 28
16174 20216 20218 28
16175 20216 20219 28
16176 20216 20220 28
16177 20221 20222 28
16178 20221 20223 28
16179 20221 20224 28
16180 20221 20225 28
16181 20226 20227 28
16182 20226 20228 28
16183 20226 20229 28
16184 20226 20230 28
16185 20231 20232 28
16186 20231 20233 28
16187 20231 20234 28
16188 20231 20235 28
16189 20236 20237 28
16190 20236 20238 28
16191 20236 20239 28
16192 20236 20240 28
16193 20241 20242 28
16194 20241 20243 28
16195 20241 20244 28
16196 20241 20245 28
16197 20246 20247 28
16198 20246 20248 28
16199 20246 20249 28
16200 20246 20250 28
16201 20251 20252 28
16202 20251 20253 28
16203 20251 20254 28
16204 20251 20255 28
16205 20256 20257 28
16206 20256 20258 28
16207 20256 20259 28
16208 20256 20260 28
16209 20261 20262 28
16210 20261 20263 28
16211 20261 20264 28
16212 20261 20265 28
16213 20266 20267 28
16214 20266 20268 28
16215 20266 20269 28
16216 20266 20270 28
16217 20271 20272 28
16218 20271 20273 28
16219 20271 20274 28
16220 20271 20275 28
16221 20276 20277 28
16222 20276 20278 28
16223 20276 20279 28
16224 20276 20280 28
16225 20281 20282 28
16226 20281 20283 28
16227 20281 20284 28
16228 20281 20285 28
16229 20286 20287 28
16230 20286 20288 28
16231 20286 20289 28
16232 20286 20290 28
16233 20291 20292 28
16234 20291 20293 28
16235 20291 20294 28
16236 20291 20295 28
16237 20296 20297 28
16238 20296 20298 28
16239 20296 20299 28
16240 20296 20300 28
16241 20301 20302 28
16242 20301 20303 28
16243 20301 20304 28
16244 20301 20305 28
16245 20306 20307 28
16246 20306 20308 28
16247 20306 20309 28
16248 20306 20310 28
16249 20311 20312 28
16250 20311 20313 28
16251 20311 20314 28
16252 20311 20315 28
16253 20316 20317 28
16254 20316 20318 28
16255 20316 20319 28
16256 20316 20320 28
16257 20321 20322 28
16258 20321 20323 28
16259 20321 20324 28
16260 20321 20325 28
16261 20326 20327 28
16262 20326 20328 28
16263 20326 20329 28
16264 20326 20330 28
16265 20331 20332 28
16266 20331 20333 28
16267 20331 20334 28
16268 20331 20335 28
16269 20336 20337 28
16270 20336 20338 28
16271 20336 20339 28
16272 20336 20340 28
16273 20341 20342 28
16274 20341 20343 28
16275 20341 20344 28
16276 20341 20345 28
16277 20346 20347 28
16278 20346 20348 28
16279 20346 20349 28
16280 20346 20350 28
16281 20351 20352 28
16282 20351 20353 28
16283 20351 20354 28
16284 20351 20355 28
16285 20356 20357 28
16286 20356 20358 28
16287 20356 20359 28
16288 20356 20360 28
16289 20361 20362 28
16290 20361 20363 28
16291 20361 20364 28
16292 20361 20365 28
16293 20366 20367 28
16294 20366 20368 28
16295 20366 20369 28
16296 20366 20370 28
16297 20371 20372 28
16298 20371 20373 28
16299 20371 20374 28
16300 20371 20375 28
16301 20376 20377 28
16302 20376 20378 28
16303 20376 20379 28
16304 20376 20380 28
16305 20381 20382 28
16306 20381 20383 28
16307 20381 20384 28
16308 20381 20385 28
16309 20386 20387 28
16310 20386 20388 28
16311 20386 20389 28
16312 20386 20390 28
16313 20391 20392 28
16314 20391 20393 28
16315 20391 20394 28
16316 20391 20395 28
16317 20396 20397 28
16318 20396 20398 28
16319 20396 20399 28
16320 20396 20400 28
16321 20401 20402 28
16322 20401 20403 28
16323 20401 20404 28
16324 20401 20405 28
16325 20406 20407 28
16326 20406 20408 28
16327 20406 20409 28
16328 20406 20410 28
16329 20411 20412 28
16330 20411 20413 28
16331 20411 20414 28
16332 20411 20415 28
16333 20416 20417 28
16334 20416 20418 28
16335 20416 20419 28
16336 20416 20420 28
16337 20421 20422 28
16338 20421 20423 28
16339 20421 20424 28
16340 20421 20425 28
16341 20426 20427 28
16342 20426 20428 28
16343 20426 20429 28
16344 20426 20430 28
16345 20431 20432 28
16346 20431 20433 28
16347 20431 20434 28
16348 20431 20435 28
16349 20436 20437 28
16350 20436 20438 28
16351 20436 20439 28
16352 20436 20440 28
16353 20441 20442 28
16354 20441 20443 28
16355 20441 20444 28
16356 20441 20445 28
16357 20446 20447 28
16358 20446 20448 28
16359 20446 20449 28
16360 20446 20450 28
16361 20451 20452 28
16362 20451 20453 28
16363 20451 20454 28
16364 20451 20455 28
16365 20456 20457 28
16366 20456 20458 28
16367 20456 20459 28
16368 20456 20460 28
16369 20461 20462 28
16370 20461 20463 28
16371 20461 20464 28
16372 20461 20465 28
16373 20466 20467 28
16374 20466 20468 28
16375 20466 20469 28
16376 20466 20470 28
16377 20471 20472 28
16378 20471 20473 28
16379 20471 20474 28
16380 20471 20475 28
16381 20476 20477 28
16382 20476 20478 28
16383 20476 20479 28
16384 20476 20480 28
16385 20481 20482 28
16386 20481 20483 28
16387 20481 20484 28
16388 20481 20485 28
16389 20486 20487 28
16390 20486 20488 28
16391 20486 20489 28
16392 20486 20490 28
16393 20491 20492 28
16394 20491 20493 28
16395 20491 20494 28
16396 20491 20495 28
16397 20496 20497 28
16398 20496 20498 28
16399 20496 20499 28
16400 20496 20500 28
16401 20501 20502 28
16402 20501 20503 28
16403 20501 20504 28
16404 20501 20505 28
16405 20506 20507 28
16406 20506 20508 28
16407 20506 20509 28
16408 20506 20510 28
16409 20511 20512 28
16410 20511 20513 28
16411 20511 20514 28
16412 20511 20515 28
16413 20516 20517 28
16414 20516 20518 28
16415 20516 20519 28
16416 20516 20520 28
16417 20521 20522 28
16418 20521 20523 28
16419 20521 20524 28
16420 20521 20525 28
16421 20526 20527 28
16422 20526 20528 28
16423 20526 20529 28
16424 20526 20530 28
16425 20531 20532 28
16426 20531 20533 28
16427 20531 20534 28
16428 20531 20535 28
16429 20536 20537 28
16430 20536 20538 28
16431 20536 20539 28
16432 20536 20540 28
16433 20541 20542 28
16434 20541 20543 28
16435 20541 20544 28
16436 20541 20545 28
16437 20546 20547 28
16438 20546 20548 28
16439 20546 20549 28
16440 20546 20550 28
16441 20551 20552 28
16442 20551 20553 28
16443 20551 20554 28
16444 20551 20555 28
16445 20556 20557 28
16446 20556 20558 28
16447 20556 20559 28
16448 20556 20560 28
16449 20561 20562 28
16450 20561 20563 28
16451 20561 20564 28
16452 20561 20565 28
16453 20566 20567 28
16454 20566 20568 28
16455 20566 20569 28
16456 20566 20570 28
16457 20571 20572 28
16458 20571 20573 28
16459 20571 20574 28
16460 20571 20575 28
16461 20576 20577 28
16462 20576 20578 28
16463 20576 20579 28
16464 20576 20580 28
16465 20581 20582 28
16466 20581 20583 28
16467 20581 20584 28
16468 20581 20585 28
16469 20586 20587 28
16470 20586 20588 28
16471 20586 20589 28
16472 20586 20590 28
16473 20591 20592 28
16474 20591 20593 28
16475 20591 20594 28
16476 20591 20595 28
16477 20596 20597 28
16478 20596 20598 28
16479 20596 20599 28
16480 20596 20600 28
16481 20601 20602 28
16482 20601 20603 28
16483 20601 20604 28
16484 20601 20605 28
16485 20606 20607 28
16486 20606 20608 28
16487 20606 20609 28
16488 20606 20610 28
16489 20611 20612 28
16490 20611 20613 28
16491 20611 20614 28
16492 20611 20615 28
16493 20616 20617 28
16494 20616 20618 28
16495 20616 20619 28
16496 20616 20620 28
16497 20621 20622 28
16498 20621 20623 28
16499 20621 20624 28
16500 20621 20625 28
16501 20626 20627 28
16502 20626 20628 28
16503 20626 20629 28
16504 20626 20630 28
16505 20631 20632 28
16506 20631 20633 28
16507 20631 20634 28
16508 20631 20635 28
16509 20636 20637 28
16510 20636 20638 28
16511 20636 20639 28
16512 20636 20640 28
16513 20641 20642 28
16514 20641 20643 28
16515 20641 20644 28
16516 20641 20645 28
16517 20646 20647 28
16518 20646 20648 28
16519 20646 20649 28
16520 20646 20650 28
16521 20651 20652 28
16522 20651 20653 28
16523 20651 20654 28
16524 20651 20655 28
16525 20656 20657 28
16526 20656 20658 28
16527 20656 20659 28
16528 20656 20660 28
16529 20661 20662 28
16530 20661 20663 28
16531 20661 20664 28
16532 20661 20665 28
16533 20666 20667 28
16534 20666 20668 28
16535 20666 20669 28
16536 20666 20670 28
16537 20671 20672 28
16538 20671 20673 28
16539 20671 20674 28
16540 20671 20675 28
16541 20676 20677 28
16542 20676 20678 28
16543 20676 20679 28
16544 20676 20680 28
16545 20681 20682 28
16546 20681 20683 28
16547 20681 20684 28
16548 20681 20685 28
16549 20686 20687 28
16550 20686 20688 28
16551 20686 20689 28
16552 20686 20690 28
16553 20691 20692 28
16554 20691 20693 28
16555 20691 20694 28
16556 20691 20695 28
16557 20696 20697 28
16558 20696 20698 28
16559 20696 20699 28
16560 20696 20700 28
16561 20701 20702 28
16562 20701 20703 28
16563 20701 20704 28
16564 20701 20705 28
16565 20706 20707 28
16566 20706 20708 28
16567 20706 20709 28
16568 20706 20710 28
16569 20711 20712 28
16570 20711 20713 28
16571 20711 20714 28
16572 20711 20715 28
16573 20716 20717 28
16574 20716 20718 28
16575 20716 20719 28
16576 20716 20720 28
16577 20721 20722 28
16578 20721 20723 28
16579 20721 20724 28
16580 20721 20725 28
16581 20726 20727 28
16582 20726 20728 28
16583 20726 20729 28
16584 20726 20730 28
16585 20731 20732 28
16586 20731 20733 28
16587 20731 20734 28
16588 20731 20735 28
16589 20736 20737 28
16590 20736 20738 28
16591 20736 20739 28
16592 20736 20740 28
16593 20741 20742 28
16594 20741 20743 28
16595 20741 20744 28
16596 20741 20745 28
16597 20746 20747 28
16598 20746 20748 28
16599 20746 20749 28
16600 20746 20750 28
16601 20751 20752 28
16602 20751 20753 28
16603 20751 20754 28
16604 20751 20755 28
16605 20756 20757 28
16606 20756 20758 28
16607 20756 20759 28
16608 20756 20760 28
16609 20761 20762 28
16610 20761 20763 28
16611 20761 20764 28
16612 20761 20765 28
16613 20766 20767 28
16614 20766 20768 28
16615 20766 20769 28
16616 20766 20770 28
16617 20771 20772 28
16618 20771 20773 28
16619 20771 20774 28
16620 20771 20775 28
16621 20776 20777 28
16622 20776 20778 28
16623 20776 20779 28
16624 20776 20780 28
16625 20781 20782 28
16626 20781 20783 28
16627 20781 20784 28
16628 20781 20785 28
16629 20786 20787 28
16630 20786 20788 28
16631 20786 20789 28
16632 20786 20790 28
16633 20791 20792 28
16634 20791 20793 28
16635 20791 20794 28
16636 20791 20795 28
16637 20796 20797 28
16638 20796 20798 28
16639 20796 20799 28
16640 20796 20800 28
16641 20801 20802 28
16642 20801 20803 28
16643 20801 20804 28
16644 20801 20805 28
16645 20806 20807 28
16646 20806 20808 28
16647 20806 20809 28
16648 20806 20810 28
16649 20811 20812 28
16650 20811 20813 28
16651 20811 20814 28
16652 20811 20815 28
16653 20816 20817 28
16654 20816 20818 28
16655 20816 20819 28
16656 20816 20820 28
16657 20821 20822 28
16658 20821 20823 28
16659 20821 20824 28
16660 20821 20825 28
16661 20826 20827 28
16662 20826 20828 28
16663 20826 20829 28
16664 20826 20830 28
16665 20831 20832 28
16666 20831 20833 28
16667 20831 20834 28
16668 20831 20835 28
16669 20836 20837 28
16670 20836 20838 28
16671 20836 20839 28
16672 20836 20840 28
16673 20841 20842 28
16674 20841 20843 28
16675 20841 20844 28
16676 20841 20845 28
16677 20846 20847 28
16678 20846 20848 28
16679 20846 20849 28
16680 20846 20850 28
16681 20851 20852 28
16682 20851 20853 28
16683 20851 20854 28
16684 20851 20855 28
16685 20856 20857 28
16686 20856 20858 28
16687 20856 20859 28
16688 20856 20860 28
16689 20861 20862 28
16690 20861 20863 28
16691 20861 20864 28
16692 20861 20865 28
16693 20866 20867 28
16694 20866 20868 28
16695 20866 20869 28
16696 20866 20870 28
16697 20871 20872 28
16698 20871 20873 28
16699 20871 20874 28
16700 20871 20875 28
16701 20876 20877 28
16702 20876 20878 28
16703 20876 20879 28
16704 20876 20880 28
16705 20881 20882 28
16706 20881 20883 28
16707 20881 20884 28
16708 20881 20885 28
16709 20886 20887 28
16710 20886 20888 28
16711 20886 20889 28
16712 20886 20890 28
16713 20891 20892 28
16714 20891 20893 28
16715 20891 20894 28
16716 20891 20895 28
16717 20896 20897 28
16718 20896 20898 28
16719 20896 20899 28
16720 20896 20900 28
16721 20901 20902 28
16722 20901 20903 28
16723 20901 20904 28
16724 20901 20905 28
16725 20906 20907 28
16726 20906 20908 28
16727 20906 20909 28
16728 20906 20910 28
16729 20911 20912 28
16730 20911 20913 28
16731 20911 20914 28
16732 20911 20915 28
16733 20916 20917 28
16734 20916 20918 28
16735 20916 20919 28
16736 20916 20920 28
16737 20921 20922 28
16738 20921 20923 28
16739 20921 20924 28
16740 20921 20925 28
16741 20926 20927 28
16742 20926 20928 28
16743 20926 20929 28
16744 20926 20930 28
16745 20931 20932 28
16746 20931 20933 28
16747 20931 20934 28
16748 20931 20935 28
16749 20936 20937 28
16750 20936 20938 28
16751 20936 20939 28
16752 20936 20940 28
16753 20941 20942 28
16754 20941 20943 28
16755 20941 20944 28
16756 20941 20945 28
16757 20946 20947 28
16758 20946 20948 28
16759 20946 20949 28
16760 20946 20950 28
16761 20951 20952 28
16762 20951 20953 28
16763 20951 20954 28
16764 20951 20955 28
16765 20956 20957 28
16766 20956 20958 28
16767 20956 20959 28
16768 20956 20960 28
16769 20961 20962 28
16770 20961 20963 28
16771 20961 20964 28
16772 20961 20965 28
16773 20966 20967 28
16774 20966 20968 28
16775 20966 20969 28
16776 20966 20970 28
16777 20971 20972 28
16778 20971 20973 28
16779 20971 20974 28
16780 20971 20975 28
16781 20976 20977 28
16782 20976 20978 28
16783 20976 20979 28
16784 20976 20980 28
16785 20981 20982 28
16786 20981 20983 28
16787 20981 20984 28
16788 20981 20985 28
16789 20986 20987 28
16790 20986 20988 28
16791 20986 20989 28
16792 20986 20990 28
16793 20991 20992 28
16794 20991 20993 28
16795 20991 20994 28
16796 20991 20995 28
16797 20996 20997 28
16798 20996 20998 28
16799 20996 20999 28
16800 20996 21000 28
16801 21001 21002 28
16802 21001 21003 28
16803 21001 21004 28
16804 21001 21005 28
16805 21006 21007 28
16806 21006 21008 28
16807 21006 21009 28
16808 21006 21010 28
16809 21011 21012 28
16810 21011 21013 28
16811 21011 21014 28
16812 21011 21015 28
16813 21016 21017 28
16814 21016 21018 28
16815 21016 21019 28
16816 21016 21020 28
16817 21021 21022 28
16818 21021 21023 28
16819 21021 21024 28
16820 21021 21025 28
16821 21026 21027 28
16822 21026 21028 28
16823 21026 21029 28
16824 21026 21030 28
16825 21031 21032 28
16826 21031 21033 28
16827 21031 21034 28
16828 21031 21035 28
16829 21036 21037 28
16830 21036 21038 28
16831 21036 21039 28
16832 21036 21040 28
16833 21041 21042 28
16834 21041 21043 28
16835 21041 21044 28
16836 21041 21045 28
16837 21046 21047 28
16838 21046 21048 28
16839 21046 21049 28
16840 21046 21050 28
16841 21051 21052 28
16842 21051 21053 28
16843 21051 21054 28
16844 21051 21055 28
16845 21056 21057 28
16846 21056 21058 28
16847 21056 21059 28
16848 21056 21060 28
16849 21061 21062 28
16850 21061 21063 28
16851 21061 21064 28
16852 21061 21065 28
16853 21066 21067 28
16854 21066 21068 28
16855 21066 21069 28
16856 21066 21070 28
16857 21071 21072 28
16858 21071 21073 28
16859 21071 21074 28
16860 21071 21075 28
16861 21076 21077 28
16862 21076 21078 28
16863 21076 21079 28
16864 21076 21080 28
16865 21081 21082 28
16866 21081 21083 28
16867 21081 21084 28
16868 21081 21085 28
16869 21086 21087 28
16870 21086 21088 28
16871 21086 21089 28
16872 21086 21090 28
16873 21091 21092 28
16874 21091 21093 28
16875 21091 21094 28
16876 21091 21095 28
16877 21096 21097 28
16878 21096 21098 28
16879 21096 21099 28
16880 21096 21100 28
16881 21101 21102 28
16882 21101 21103 28
16883 21101 21104 28
16884 21101 21105 28
16885 21106 21107 28
16886 21106 21108 28
16887 21106 21109 28
16888 21106 21110 28
16889 21111 21112 28
16890 21111 21113 28
16891 21111 21114 28
16892 21111 21115 28
16893 21116 21117 28
16894 21116 21118 28
16895 21116 21119 28
16896 21116 21120 28
16897 21121 21122 28
16898 21121 21123 28
16899 21121 21124 28
16900 21121 21125 28
16901 21126 21127 28
16902 21126 21128 28
16903 21126 21129 28
16904 21126 21130 28
16905 21131 21132 28
16906 21131 21133 28
16907 21131 21134 28
16908 21131 21135 28
16909 21136 21137 28
16910 21136 21138 28
16911 21136 21139 28
16912 21136 21140 28
16913 21141 21142 28
16914 21141 21143 28
16915 21141 21144 28
16916 21141 21145 28
16917 21146 21147 28
16918 21146 21148 28
16919 21146 21149 28
16920 21146 21150 28
16921 21151 21152 28
16922 21151 21153 28
16923 21151 21154 28
16924 21151 21155 28
16925 21156 21157 28
16926 21156 21158 28
16927 21156 21159 28
16928 21156 21160 28
16929 21161 21162 28
16930 21161 21163 28
16931 21161 21164 28
16932 21161 21165 28
16933 21166 21167 28
16934 21166 21168 28
16935 21166 21169 28
16936 21166 21170 28
16937 21171 21172 28
16938 21171 21173 28
16939 21171 21174 28
16940 21171 21175 28
16941 21176 21177 28
16942 21176 21178 28
16943 21176 21179 28
16944 21176 21180 28
16945 21181 21182 28
16946 21181 21183 28
16947 21181 21184 28
16948 21181 21185 28
16949 21186 21187 28
16950 21186 21188 28
16951 21186 21189 28
16952 21186 21190 28
16953 21191 21192 28
16954 21191 21193 28
16955 21191 21194 28
16956 21191 21195 28
16957 21196 21197 28
16958 21196 21198 28
16959 21196 21199 28
16960 21196 21200 28
16961 21201 21202 28
16962 21201 21203 28
16963 21201 21204 28
16964 21201 21205 28
16965 21206 21207 28
16966 21206 21208 28
16967 21206 21209 28
16968 21206 21210 28
16969 21211 21212 28
16970 21211 21213 28
16971 21211 21214 28
16972 21211 21215 28
16973 21216 21217 28
16974 21216 21218 28
16975 21216 21219 28
16976 21216 21220 28
16977 21221 21222 28
16978 21221 21223 28
16979 21221 21224 28
16980 21221 21225 28
16981 21226 21227 28
16982 21226 21228 28
16983 21226 21229 28
16984 21226 21230 28
16985 21231 21232 28
16986 21231 21233 28
16987 21231 21234 28
16988 21231 21235 28
16989 21236 21237 28
16990 21236 21238 28
16991 21236 21239 28
16992 21236 21240 28
16993 21241 21242 28
16994 21241 21243 28
16995 21241 21244 28
16996 21241 21245 28
16997 21246 21247 28
16998 21246 21248 28
16999 21246 21249 28
17000 21246 21250 28
17001 21251 21252 28
17002 21251 21253 28
17003 21251 21254 28
17004 21251 21255 28
17005 21256 21257 28
17006 21256 21258 28
17007 21256 21259 28
17008 21256 21260 28
17009 21261 21262 28
17010 21261 21263 28
17011 21261 21264 28
17012 21261 21265 28
17013 21266 21267 28
17014 21266 21268 28
17015 21266 21269 28
17016 21266 21270 28
17017 21271 21272 28
17018 21271 21273 28
17019 21271 21274 28
17020 21271 21275 28
17021 21276 21277 28
17022 21276 21278 28
17023 21276 21279 28
17024 21276 21280 28
17025 21281 21282 28
17026 21281 21283 28
17027 21281 21284 28
17028 21281 21285 28
17029 21286 21287 28
17030 21286 21288 28
17031 21286 21289 28
17032 21286 21290 28
17033 21291 21292 28
17034 21291 21293 28
17035 21291 21294 28
17036 21291 21295 28
17037 21296 21297 28
17038 21296 21298 28
17039 21296 21299 28
17040 21296 21300 28
17041 21301 21302 28
17042 21301 21303 28
17043 21301 21304 28
17044 21301 21305 28
17045 21306 21307 28
17046 21306 21308 28
17047 21306 21309 28
17048 21306 21310 28
17049 21311 21312 28
17050 21311 21313 28
17051 21311 21314 28
17052 21311 21315 28
17053 21316 21317 28
17054 21316 21318 28
17055 21316 21319 28
17056 21316 21320 28
17057 21321 21322 28
17058 21321 21323 28
17059 21321 21324 28
17060 21321 21325 28
17061 21326 21327 28
17062 21326 21328 28
17063 21326 21329 28
17064 21326 21330 28
17065 21331 21332 28
17066 21331 21333 28
17067 21331 21334 28
17068 21331 21335 28
17069 21336 21337 28
17070 21336 21338 28
17071 21336 21339 28
17072 21336 21340 28
17073 21341 21342 28
17074 21341 21343 28
17075 21341 21344 28
17076 21341 21345 28
17077 21346 21347 28
17078 21346 21348 28
17079 21346 21349 28
17080 21346 21350 28
17081 21351 21352 28
17082 21351 21353 28
17083 21351 21354 28
17084 21351 21355 28
17085 21356 21357 28
17086 21356 21358 28
17087 21356 21359 28
17088 21356 21360 28
17089 21361 21362 28
17090 21361 21363 28
17091 21361 21364 28
17092 21361 21365 28
17093 21366 21367 28
17094 21366 21368 28
17095 21366 21369 28
17096 21366 21370 28
17097 21371 21372 28
17098 21371 21373 28
17099 21371 21374 28
17100 21371 21375 28
17101 21376 21377 28
17102 21376 21378 28
17103 21376 21379 28
17104 21376 21380 28
17105 21381 21382 28
17106 21381 21383 28
17107 21381 21384 28
17108 21381 21385 28
17109 21386 21387 28
17110 21386 21388 28
17111 21386 21389 28
17112 21386 21390 28
17113 21391 21392 28
17114 21391 21393 28
17115 21391 21394 28
17116 21391 21395 28
17117 21396 21397 28
17118 21396 21398 28
17119 21396 21399 28
17120 21396 21400 28
17121 21401 21402 28
17122 21401 21403 28
17123 21401 21404 28
17124 21401 21405 28
17125 21406 21407 28
17126 21406 21408 28
17127 21406 21409 28
17128 21406 21410 28
17129 21411 21412 28
17130 21411 21413 28
17131 21411 21414 28
17132 21411 21415 28
17133 21416 21417 28
17134 21416 21418 28
17135 21416 21419 28
17136 21416 21420 28
17137 21421 21422 28
17138 21421 21423 28
17139 21421 21424 28
17140 21421 21425 28
17141 21426 21427 28
17142 21426 21428 28
17143 21426 21429 28
17144 21426 21430 28
17145 21431 21432 28
17146 21431 21433 28
17147 21431 21434 28
17148 21431 21435 28
17149 21436 21437 28
17150 21436 21438 28
17151 21436 21439 28
17152 21436 21440 28
17153 21441 21442 28
17154 21441 21443 28
17155 21441 21444 28
17156 21441 21445 28
17157 21446 21447 28
17158 21446 21448 28
17159 21446 21449 28
17160 21446 21450 28
17161 21451 21452 28
17162 21451 21453 28
17163 21451 21454 28
17164 21451 21455 28
17165 21456 21457 28
17166 21456 21458 28
17167 21456 21459 28
17168 21456 21460 28
17169 21461 21462 28
17170 21461 21463 28
17171 21461 21464 28
17172 21461 21465 28
17173 21466 21467 28
17174 21466 21468 28
17175 21466 21469 28
17176 21466 21470 28
17177 21471 21472 28
17178 21471 21473 28
17179 21471 21474 28
17180 21471 21475 28
17181 21476 21477 28
17182 21476 21478 28
17183 21476 21479 28
17184 21476 21480 28
17185 21481 21482 28
17186 21481 21483 28
17187 21481 21484 28
17188 21481 21485 28
17189 21486 21487 28
17190 21486 21488 28
17191 21486 21489 28
17192 21486 21490 28
17193 21491 21492 28
17194 21491 21493 28
17195 21491 21494 28
17196 21491 21495 28
17197 21496 21497 28
17198 21496 21498 28
17199 21496 21499 28
17200 21496 21500 28
17201 21501 21502 28
17202 21501 21503 28
17203 21501 21504 28
17204 21501 21505 28
17205 21506 21507 28
17206 21506 21508 28
17207 21506 21509 28
17208 21506 21510 28
17209 21511 21512 28
17210 21511 21513 28
17211 21511 21514 28
17212 21511 21515 28
17213 21516 21517 28
17214 21516 21518 28
17215 21516 21519 28
17216 21516 21520 28
17217 21521 21522 28
17218 21521 21523 28
17219 21521 21524 28
17220 21521 21525 28
17221 21526 21527 28
17222 21526 21528 28
17223 21526 21529 28
17224 21526 21530 28
17225 21531 21532 28
17226 21531 21533 28
17227 21531 21534 28
17228 21531 21535 28
17229 21536 21537 28
17230 21536 21538 28
17231 21536 21539 28
17232 21536 21540 28
17233 21541 21542 28
17234 21541 21543 28
17235 21541 21544 28
17236 21541 21545 28
17237 21546 21547 28
17238 21546 21548 28
17239 21546 21549 28
17240 21546 21550 28
17241 21551 21552 28
17242 21551 21553 28
17243 21551 21554 28
17244 21551 21555 28
17245 21556 21557 28
17246 21556 21558 28
17247 21556 21559 28
17248 21556 21560 28
17249 21561 21562 28
17250 21561 21563 28
17251 21561 21564 28
17252 21561 21565 28
17253 21566 21567 28
17254 21566 21568 28
17255 21566 21569 28
17256 21566 21570 28
17257 21571 21572 28
17258 21571 21573 28
17259 21571 21574 28
17260 21571 21575 28
17261 21576 21577 28
17262 21576 21578 28
17263 21576 21579 28
17264 21576 21580 28
17265 21581 21582 28
17266 21581 21583 28
17267 21581 21584 28
17268 21581 21585 28
17269 21586 21587 28
17270 21586 21588 28
17271 21586 21589 28
17272 21586 21590 28
17273 21591 21592 28
17274 21591 21593 28
17275 21591 21594 28
17276 21591 21595 28
17277 21596 21597 28
17278 21596 21598 28
17279 21596 21599 28
17280 21596 21600 28
17281 21601 21602 28
17282 21601 21603 28
17283 21601 21604 28
17284 21601 21605 28
17285 21606 21607 28
17286 21606 21608 28
17287 21606 21609 28
17288 21606 21610 28
17289 21611 21612 28
17290 21611 21613 28
17291 21611 21614 28
17292 21611 21615 28
17293 21616 21617 28
17294 21616 21618 28
17295 21616 21619 28
17296 21616 21620 28
17297 21621 21622 28
17298 21621 21623 28
17299 21621 21624 28
17300 21621 21625 28
17301 21626 21627 28
17302 21626 21628 28
17303 21626 21629 28
17304 21626 21630 28
17305 21631 21632 28
17306 21631 21633 28
17307 21631 21634 28
17308 21631 21635 28
17309 21636 21637 28
17310 21636 21638 28
17311 21636 21639 28
17312 21636 21640 28
17313 21641 21642 28
17314 21641 21643 28
17315 21641 21644 28
17316 21641 21645 28
17317 21646 21647 28
17318 21646 21648 28
17319 21646 21649 28
17320 21646 21650 28
17321 21651 21652 28
17322 21651 21653 28
17323 21651 21654 28
17324 21651 21655 28
17325 21656 21657 28
17326 21656 21658 28
17327 21656 21659 28
17328 21656 21660 28
17329 21661 21662 28
17330 21661 21663 28
17331 21661 21664 28
17332 21661 21665 28
17333 21666 21667 28
17334 21666 21668 28
17335 21666 21669 28
17336 21666 21670 28
17337 21671 21672 28
17338 21671 21673 28
17339 21671 21674 28
17340 21671 21675 28
17341 21676 21677 28
17342 21676 21678 28
17343 21676 21679 28
17344 21676 21680 28
17345 21681 21682 28
17346 21681 21683 28
17347 21681 21684 28
17348 21681 21685 28
17349 21686 21687 28
17350 21686 21688 28
17351 21686 21689 28
17352 21686 21690 28
17353 21691 21692 28
17354 21691 21693 28
17355 21691 21694 28
17356 21691 21695 28
17357 21696 21697 28
17358 21696 21698 28
17359 21696 21699 28
17360 21696 21700 28
17361 21701 21702 28
17362 21701 21703 28
17363 21701 21704 28
17364 21701 21705 28
17365 21706 21707 28
17366 21706 21708 28
17367 21706 21709 28
17368 21706 21710 28
17369 21711 21712 28
17370 21711 21713 28
17371 21711 21714 28
17372 21711 21715 28
17373 21716 21717 28
17374 21716 21718 28
17375 21716 21719 28
17376 21716 21720 28
17377 21721 21722 28
17378 21721 21723 28
17379 21721 21724 28
17380 21721 21725 28
17381 21726 21727 28
17382 21726 21728 28
17383 21726 21729 28
17384 21726 21730 28
17385 21731 21732 28
17386 21731 21733 28
17387 21731 21734 28
17388 21731 21735 28
17389 21736 21737 28
17390 21736 21738 28
17391 21736 21739 28
17392 21736 21740 28
17393 21741 21742 28
17394 21741 21743 28
17395 21741 21744 28
17396 21741 21745 28
17397 21746 21747 28
17398 21746 21748 28
17399 21746 21749 28
17400 21746 21750 28
17401 21751 21752 28
17402 21751 21753 28
17403 21751 21754 28
17404 21751 21755 28
17405 21756 21757 28
17406 21756 21758 28
17407 21756 21759 28
17408 21756 21760 28
17409 21761 21762 28
17410 21761 21763 28
17411 21761 21764 28
17412 21761 21765 28
17413 21766 21767 28
17414 21766 21768 28
17415 21766 21769 28
17416 21766 21770 28
17417 21771 21772 28
17418 21771 21773 28
17419 21771 21774 28
17420 21771 21775 28
17421 21776 21777 28
17422 21776 21778 28
17423 21776 21779 28
17424 21776 21780 28
17425 21781 21782 28
17426 21781 21783 28
17427 21781 21784 28
17428 21781 21785 28
17429 21786 21787 28
17430 21786 21788 28
17431 21786 21789 28
17432 21786 21790 28
17433 21791 21792 28
17434 21791 21793 28
17435 21791 21794 28
17436 21791 21795 28
17437 21796 21797 28
17438 21796 21798 28
17439 21796 21799 28
17440 21796 21800 28
17441 21801 21802 28
17442 21801 21803 28
17443 21801 21804 28
17444 21801 21805 28
17445 21806 21807 28
17446 21806 21808 28
17447 21806 21809 28
17448 21806 21810 28
17449 21811 21812 28
17450 21811 21813 28
17451 21811 21814 28
17452 21811 21815 28
17453 21816 21817 28
17454 21816 21818 28
17455 21816 21819 28
17456 21816 21820 28
17457 21821 21822 28
17458 21821 21823 28
17459 21821 21824 28
17460 21821 21825 28
17461 21826 21827 28
17462 21826 21828 28
17463 21826 21829 28
17464 21826 21830 28
17465 21831 21832 28
17466 21831 21833 28
17467 21831 21834 28
17468 21831 21835 28
17469 21836 21837 28
17470 21836 21838 28
17471 21836 21839 28
17472 21836 21840 28
17473 21841 21842 28
17474 21841 21843 28
17475 21841 21844 28
17476 21841 21845 28
17477 21846 21847 28
17478 21846 21848 28
17479 21846 21849 28
17480 21846 21850 28
17481 21851 21852 28
17482 21851 21853 28
17483 21851 21854 28
17484 21851 21855 28
17485 21856 21857 28
17486 21856 21858 28
17487 21856 21859 28
17488 21856 21860 28
17489 21861 21862 28
17490 21861 21863 28
17491 21861 21864 28
17492 21861 21865 28
17493 21866 21867 28
17494 21866 21868 28
17495 21866 21869 28
17496 21866 21870 28
17497 21871 21872 28
17498 21871 21873 28
17499 21871 21874 28
17500 21871 21875 28
17501 21876 21877 28
17502 21876 21878 28
17503 21876 21879 28
17504 21876 21880 28
17505 21881 21882 28
17506 21881 21883 28
17507 21881 21884 28
17508 21881 21885 28
17509 21886 21887 28
17510 21886 21888 28
17511 21886 21889 28
17512 21886 21890 28
17513 21891 21892 28
17514 21891 21893 28
17515 21891 21894 28
17516 21891 21895 28
17517 21896 21897 28
17518 21896 21898 28
17519 21896 21899 28
17520 21896 21900 28
17521 21901 21902 28
17522 21901 21903 28
17523 21901 21904 28
17524 21901 21905 28
17525 21906 21907 28
17526 21906 21908 28
17527 21906 21909 28
17528 21906 21910 28
17529 21911 21912 28
17530 21911 21913 28
17531 21911 21914 28
17532 21911 21915 28
17533 21916 21917 28
17534 21916 21918 28
17535 21916 21919 28
17536 21916 21920 28
17537 21921 21922 28
17538 21921 21923 28
17539 21921 21924 28
17540 21921 21925 28
17541 21926 21927 28
17542 21926 21928 28
17543 21926 21929 28
17544 21926 21930 28
17545 21931 21932 28
17546 21931 21933 28
17547 21931 21934 28
17548 21931 21935 28
17549 21936 21937 28
17550 21936 21938 28
17551 21936 21939 28
17552 21936 21940 28
17553 21941 21942 28
17554 21941 21943 28
17555 21941 21944 28
17556 21941 21945 28
17557 21946 21947 28
17558 21946 21948 28
17559 21946 21949 28
17560 21946 21950 28
17561 21951 21952 28
17562 21951 21953 28
17563 21951 21954 28
17564 21951 21955 28
17565 21956 21957 28
17566 21956 21958 28
17567 21956 21959 28
17568 21956 21960 28
17569 21961 21962 28
17570 21961 21963 28
17571 21961 21964 28
17572 21961 21965 28
17573 21966 21967 28
17574 21966 21968 28
17575 21966 21969 28
17576 21966 21970 28
17577 21971 21972 28
17578 21971 21973 28
17579 21971 21974 28
17580 21971 21975 28
17581 21976 21977 28
17582 21976 21978 28
17583 21976 21979 28
17584 21976 21980 28
17585 21981 21982 28
17586 21981 21983 28
17587 21981 21984 28
17588 21981 21985 28
17589 21986 21987 28
17590 21986 21988 28
17591 21986 21989 28
17592 21986 21990 28
17593 21991 21992 28
17594 21991 21993 28
17595 21991 21994 28
17596 21991 21995 28
17597 21996 21997 28
17598 21996 21998 28
17599 21996 21999 28
17600 21996 22000 28
17601 22001 22002 28
17602 22001 22003 28
17603 22001 22004 28
17604 22001 22005 28
17605 22006 22007 28
17606 22006 22008 28
17607 22006 22009 28
17608 22006 22010 28
17609 22011 22012 28
17610 22011 22013 28
17611 22011 22014 28
17612 22011 22015 28
17613 22016 22017 28
17614 22016 22018 28
17615 22016 22019 28
17616 22016 22020 28
17617 22021 22022 28
17618 22021 22023 28
17619 22021 22024 28
17620 22021 22025 28
17621 22026 22027 28
17622 22026 22028 28
17623 22026 22029 28
17624 22026 22030 28
17625 22031 22032 28
17626 22031 22033 28
17627 22031 22034 28
17628 22031 22035 28
17629 22036 22037 28
17630 22036 22038 28
17631 22036 22039 28
17632 22036 22040 28
17633 22041 22042 28
17634 22041 22043 28
17635 22041 22044 28
17636 22041 22045 28
17637 22046 22047 28
17638 22046 22048 28
17639 22046 22049 28
17640 22046 22050 28
17641 22051 22052 28
17642 22051 22053 28
17643 22051 22054 28
17644 22051 22055 28
17645 22056 22057 28
17646 22056 22058 28
17647 22056 22059 28
17648 22056 22060 28
17649 22061 22062 28
17650 22061 22063 28
17651 22061 22064 28
17652 22061 22065 28
17653 22066 22067 28
17654 22066 22068 28
17655 22066 22069 28
17656 22066 22070 28
17657 22071 22072 28
17658 22071 22073 28
17659 22071 22074 28
17660 22071 22075 28
17661 22076 22077 28
17662 22076 22078 28
17663 22076 22079 28
17664 22076 22080 28
17665 22081 22082 28
17666 22081 22083 28
17667 22081 22084 28
17668 22081 22085 28
17669 22086 22087 28
17670 22086 22088 28
17671 22086 22089 28
17672 22086 22090 28
17673 22091 22092 28
17674 22091 22093 28
17675 22091 22094 28
17676 22091 22095 28
17677 22096 22097 28
17678 22096 22098 28
17679 22096 22099 28
17680 22096 22100 28
17681 22101 22102 28
17682 22101 22103 28
17683 22101 22104 28
17684 22101 22105 28
17685 22106 22107 28
17686 22106 22108 28
17687 22106 22109 28
17688 22106 22110 28
17689 22111 22112 28
17690 22111 22113 28
17691 22111 22114 28
17692 22111 22115 28
17693 22116 22117 28
17694 22116 22118 28
17695 22116 22119 28
17696 22116 22120 28
17697 22121 22122 28
17698 22121 22123 28
17699 22121 22124 28
17700 22121 22125 28
17701 22126 22127 28
17702 22126 22128 28
17703 22126 22129 28
17704 22126 22130 28
17705 22131 22132 28
17706 22131 22133 28
17707 22131 22134 28
17708 22131 22135 28
17709 22136 22137 28
17710 22136 22138 28
17711 22136 22139 28
17712 22136 22140 28
17713 22141 22142 28
17714 22141 22143 28
17715 22141 22144 28
17716 22141 22145 28
17717 22146 22147 28
17718 22146 22148 28
17719 22146 22149 28
17720 22146 22150 28
17721 22151 22152 28
17722 22151 22153 28
17723 22151 22154 28
17724 22151 22155 28
17725 22156 22157 28
17726 22156 22158 28
17727 22156 22159 28
17728 22156 22160 28
17729 22161 22162 28
17730 22161 22163 28
17731 22161 22164 28
17732 22161 22165 28
17733 22166 22167 28
17734 22166 22168 28
17735 22166 22169 28
17736 22166 22170 28
17737 22171 22172 28
17738 22171 22173 28
17739 22171 22174 28
17740 22171 22175 28
17741 22176 22177 28
17742 22176 22178 28
17743 22176 22179 28
17744 22176 22180 28
17745 22181 22182 28
17746 22181 22183 28
17747 22181 22184 28
17748 22181 22185 28
17749 22186 22187 28
17750 22186 22188 28
17751 22186 22189 28
17752 22186 22190 28
17753 22191 22192 28
17754 22191 22193 28
17755 22191 22194 28
17756 22191 22195 28
17757 22196 22197 28
17758 22196 22198 28
17759 22196 22199 28
17760 22196 22200 28
17761 22201 22202 28
17762 22201 22203 28
17763 22201 22204 28
17764 22201 22205 28
17765 22206 22207 28
17766 22206 22208 28
17767 22206 22209 28
17768 22206 22210 28
17769 22211 22212 28
17770 22211 22213 28
17771 22211 22214 28
17772 22211 22215 28
17773 22216 22217 28
17774 22216 22218 28
17775 22216 22219 28
17776 22216 22220 28
17777 22221 22222 28
17778 22221 22223 28
17779 22221 22224 28
17780 22221 22225 28
17781 22226 22227 28
17782 22226 22228 28
17783 22226 22229 28
17784 22226 22230 28
17785 22231 22232 28
17786 22231 22233 28
17787 22231 22234 28
17788 22231 22235 28
17789 22236 22237 28
17790 22236 22238 28
17791 22236 22239 28
17792 22236 22240 28
17793 22241 22242 28
17794 22241 22243 28
17795 22241 22244 28
17796 22241 22245 28
17797 22246 22247 28
17798 22246 22248 28
17799 22246 22249 28
17800 22246 22250 28
17801 22251 22252 28
17802 22251 22253 28
17803 22251 22254 28
17804 22251 22255 28
17805 22256 22257 28
17806 22256 22258 28
17807 22256 22259 28
17808 22256 22260 28
17809 22261 22262 28
17810 22261 22263 28
17811 22261 22264 28
17812 22261 22265 28
17813 22266 22267 28
17814 22266 22268 28
17815 22266 22269 28
17816 22266 22270 28
17817 22271 22272 28
17818 22271 22273 28
17819 22271 22274 28
17820 22271 22275 28
17821 22276 22277 28
17822 22276 22278 28
17823 22276 22279 28
17824 22276 22280 28
17825 22281 22282 28
17826 22281 22283 28
17827 22281 22284 28
17828 22281 22285 28
17829 22286 22287 28
17830 22286 22288 28
17831 22286 22289 28
17832 22286 22290 28
17833 22291 22292 28
17834 22291 22293 28
17835 22291 22294 28
17836 22291 22295 28
17837 22296 22297 28
17838 22296 22298 28
17839 22296 22299 28
17840 22296 22300 28
17841 22301 22302 28
17842 22301 22303 28
17843 22301 22304 28
17844 22301 22305 28
17845 22306 22307 28
17846 22306 22308 28
17847 22306 22309 28
17848 22306 22310 28
17849 22311 22312 28
17850 22311 22313 28
17851 22311 22314 28
17852 22311 22315 28
17853 22316 22317 28
17854 22316 22318 28
17855 22316 22319 28
17856 22316 22320 28
17857 22321 22322 28
17858 22321 22323 28
17859 22321 22324 28
17860 22321 22325 28
17861 22326 22327 28
17862 22326 22328 28
17863 22326 22329 28
17864 22326 22330 28
17865 22331 22332 28
17866 22331 22333 28
17867 22331 22334 28
17868 22331 22335 28
17869 22336 22337 28
17870 22336 22338 28
17871 22336 22339 28
17872 22336 22340 28
17873 22341 22342 28
17874 22341 22343 28
17875 22341 22344 28
17876 22341 22345 28
17877 22346 22347 28
17878 22346 22348 28
17879 22346 22349 28
17880 22346 22350 28
17881 22351 22352 28
17882 22351 22353 28
17883 22351 22354 28
17884 22351 22355 28
17885 22356 22357 28
17886 22356 22358 28
17887 22356 22359 28
17888 22356 22360 28
17889 22361 22362 28
17890 22361 22363 28
17891 22361 22364 28
17892 22361 22365 28
17893 22366 22367 28
17894 22366 22368 28
17895 22366 22369 28
17896 22366 22370 28
17897 22371 22372 28
17898 22371 22373 28
17899 22371 22374 28
17900 22371 22375 28
17901 22376 22377 28
17902 22376 22378 28
17903 22376 22379 28
17904 22376 22380 28
17905 22381 22382 28
17906 22381 22383 28
17907 22381 22384 28
17908 22381 22385 28
17909 22386 22387 28
17910 22386 22388 28
17911 22386 22389 28
17912 22386 22390 28
17913 22391 22392 28
17914 22391 22393 28
17915 22391 22394 28
17916 22391 22395 28
17917 22396 22397 28
17918 22396 22398 28
17919 22396 22399 28
17920 22396 22400 28
17921 22401 22402 28
17922 22401 22403 28
17923 22401 22404 28
17924 22401 22405 28
17925 22406 22407 28
17926 22406 22408 28
17927 22406 22409 28
17928 22406 22410 28
17929 22411 22412 28
17930 22411 22413 28
17931 22411 22414 28
17932 22411 22415 28
17933 22416 22417 28
17934 22416 22418 28
17935 22416 22419 28
17936 22416 22420 28
17937 22421 22422 28
17938 22421 22423 28
17939 22421 22424 28
17940 22421 22425 28
17941 22426 22427 28
17942 22426 22428 28
17943 22426 22429 28
17944 22426 22430 28
17945 22431 22432 28
17946 22431 22433 28
17947 22431 22434 28
17948 22431 22435 28
17949 22436 22437 28
17950 22436 22438 28
17951 22436 22439 28
17952 22436 22440 28
17953 22441 22442 28
17954 22441 22443 28
17955 22441 22444 28
17956 22441 22445 28
17957 22446 22447 28
17958 22446 22448 28
17959 22446 22449 28
17960 22446 22450 28
17961 22451 22452 28
17962 22451 22453 28
17963 22451 22454 28
17964 22451 22455 28
17965 22456 22457 28
17966 22456 22458 28
17967 22456 22459 28
17968 22456 22460 28
17969 22461 22462 28
17970 22461 22463 28
17971 22461 22464 28
17972 22461 22465 28
17973 22466 22467 28
17974 22466 22468 28
17975 22466 22469 28
17976 22466 22470 28
17977 22471 22472 28
17978 22471 22473 28
17979 22471 22474 28
17980 22471 22475 28
17981 22476 22477 28
17982 22476 22478 28
17983 22476 22479 28
17984 22476 22480 28
17985 22481 22482 28
17986 22481 22483 28
17987 22481 22484 28
17988 22481 22485 28
17989 22486 22487 28
17990 22486 22488 28
17991 22486 22489 28
17992 22486 22490 28
17993 22491 22492 28
17994 22491 22493 28
17995 22491 22494 28
17996 22491 22495 28
17997 22496 22497 28
17998 22496 22498 28
17999 22496 22499 28
18000 22496 22500 28
18001 22501 22502 28
18002 22501 22503 28
18003 22501 22504 28
18004 22501 22505 28
18005 22506 22507 28
18006 22506 22508 28
18007 22506 22509 28
18008 22506 22510 28
18009 22511 22512 28
18010 22511 22513 28
18011 22511 22514 28
18012 22511 22515 28
18013 22516 22517 28
18014 22516 22518 28
18015 22516 22519 28
18016 22516 22520 28
18017 22521 22522 28
18018 22521 22523 28
18019 22521 22524 28
18020 22521 22525 28
18021 22526 22527 28
18022 22526 22528 28
18023 22526 22529 28
18024 22526 22530 28
18025 22531 22532 28
18026 22531 22533 28
18027 22531 22534 28
18028 22531 22535 28
18029 22536 22537 28
18030 22536 22538 28
18031 22536 22539 28
18032 22536 22540 28
18033 22541 22542 28
18034 22541 22543 28
18035 22541 22544 28
18036 22541 22545 28
18037 22546 22547 28
18038 22546 22548 28
18039 22546 22549 28
18040 22546 22550 28
18041 22551 22552 28
18042 22551 22553 28
18043 22551 22554 28
18044 22551 22555 28
18045 22556 22557 28
18046 22556 22558 28
18047 22556 22559 28
18048 22556 22560 28
18049 22561 22562 28
18050 22561 22563 28
18051 22561 22564 28
18052 22561 22565 28
18053 22566 22567 28
18054 22566 22568 28
18055 22566 22569 28
18056 22566 22570 28
18057 22571 22572 28
18058 22571 22573 28
18059 22571 22574 28
18060 22571 22575 28
18061 22576 22577 28
18062 22576 22578 28
18063 22576 22579 28
18064 22576 22580 28
18065 22581 22582 28
18066 22581 22583 28
18067 22581 22584 28
18068 22581 22585 28
18069 22586 22587 28
18070 22586 22588 28
18071 22586 22589 28
18072 22586 22590 28
18073 22591 22592 28
18074 22591 22593 28
18075 22591 22594 28
18076 22591 22595 28
18077 22596 22597 28
18078 22596 22598 28
18079 22596 22599 28
18080 22596 22600 28
18081 22601 22602 28
18082 22601 22603 28
18083 22601 22604 28
18084 22601 22605 28
18085 22606 22607 28
18086 22606 22608 28
18087 22606 22609 28
18088 22606 22610 28
18089 22611 22612 28
18090 22611 22613 28
18091 22611 22614 28
18092 22611 22615 28
18093 22616 22617 28
18094 22616 22618 28
18095 22616 22619 28
18096 22616 22620 28
18097 22621 22622 28
18098 22621 22623 28
18099 22621 22624 28
18100 22621 22625 28
18101 22626 22627 28
18102 22626 22628 28
18103 22626 22629 28
18104 22626 22630 28
18105 22631 22632 28
18106 22631 22633 28
18107 22631 22634 28
18108 22631 22635 28
18109 22636 22637 28
18110 22636 22638 28
18111 22636 22639 28
18112 22636 22640 28
18113 22641 22642 28
18114 22641 22643 28
18115 22641 22644 28
18116 22641 22645 28
18117 22646 22647 28
18118 22646 22648 28
18119 22646 22649 28
18120 22646 22650 28
18121 22651 22652 28
18122 22651 22653 28
18123 22651 22654 28
18124 22651 22655 28
18125 22656 22657 28
18126 22656 22658 28
18127 22656 22659 28
18128 22656 22660 28
18129 22661 22662 28
18130 22661 22663 28
18131 22661 22664 28
18132 22661 22665 28
18133 22666 22667 28
18134 22666 22668 28
18135 22666 22669 28
18136 22666 22670 28
18137 22671 22672 28
18138 22671 22673 28
18139 22671 22674 28
18140 22671 22675 28
18141 22676 22677 28
18142 22676 22678 28
18143 22676 22679 28
18144 22676 22680 28
18145 22681 22682 28
18146 22681 22683 28
18147 22681 22684 28
18148 22681 22685 28
18149 22686 22687 28
18150 22686 22688 28
18151 22686 22689 28
18152 22686 22690 28
18153 22691 22692 28
18154 22691 22693 28
18155 22691 22694 28
18156 22691 22695 28
18157 22696 22697 28
18158 22696 22698 28
18159 22696 22699 28
18160 22696 22700 28
18161 22701 22702 28
18162 22701 22703 28
18163 22701 22704 28
18164 22701 22705 28
18165 22706 22707 28
18166 22706 22708 28
18167 22706 22709 28
18168 22706 22710 28
18169 22711 22712 28
18170 22711 22713 28
18171 22711 22714 28
18172 22711 22715 28
18173 22716 22717 28
18174 22716 22718 28
18175 22716 22719 28
18176 22716 22720 28
18177 22721 22722 28
18178 22721 22723 28
18179 22721 22724 28
18180 22721 22725 28
18181 22726 22727 28
18182 22726 22728 28
18183 22726 22729 28
18184 22726 22730 28
18185 22731 22732 28
18186 22731 22733 28
18187 22731 22734 28
18188 22731 22735 28
18189 22736 22737 28
18190 22736 22738 28
18191 22736 22739 28
18192 22736 22740 28
18193 22741 22742 28
18194 22741 22743 28
18195 22741 22744 28
18196 22741 22745 28
18197 22746 22747 28
18198 22746 22748 28
18199 22746 22749 28
18200 22746 22750 28
18201 22751 22752 28
18202 22751 22753 28
18203 22751 22754 28
18204 22751 22755 28
18205 22756 22757 28
18206 22756 22758 28
18207 22756 22759 28
18208 22756 22760 28
18209 22761 22762 28
18210 22761 22763 28
18211 22761 22764 28
18212 22761 22765 28
18213 22766 22767 28
18214 22766 22768 28
18215 22766 22769 28
18216 22766 22770 28
18217 22771 22772 28
18218 22771 22773 28
18219 22771 22774 28
18220 22771 22775 28
18221 22776 22777 28
18222 22776 22778 28
18223 22776 22779 28
18224 22776 22780 28
18225 22781 22782 28
18226 22781 22783 28
18227 22781 22784 28
18228 22781 22785 28
18229 22786 22787 28
18230 22786 22788 28
18231 22786 22789 28
18232 22786 22790 28
18233 22791 22792 28
18234 22791 22793 28
18235 22791 22794 28
18236 22791 22795 28
18237 22796 22797 28
18238 22796 22798 28
18239 22796 22799 28
18240 22796 22800 28
18241 22801 22802 28
18242 22801 22803 28
18243 22801 22804 28
18244 22801 22805 28
18245 22806 22807 28
18246 22806 22808 28
18247 22806 22809 28
18248 22806 22810 28
18249 22811 22812 28
18250 22811 22813 28
18251 22811 22814 28
18252 22811 22815 28
18253 22816 22817 28
18254 22816 22818 28
18255 22816 22819 28
18256 22816 22820 28
18257 22821 22822 28
18258 22821 22823 28
18259 22821 22824 28
18260 22821 22825 28
18261 22826 22827 28
18262 22826 22828 28
18263 22826 22829 28
18264 22826 22830 28
18265 22831 22832 28
18266 22831 22833 28
18267 22831 22834 28
18268 22831 22835 28
18269 22836 22837 28
18270 22836 22838 28
18271 22836 22839 28
18272 22836 22840 28
18273 22841 22842 28
18274 22841 22843 28
18275 22841 22844 28
18276 22841 22845 28
18277 22846 22847 28
18278 22846 22848 28
18279 22846 22849 28
18280 22846 22850 28
18281 22851 22852 28
18282 22851 22853 28
18283 22851 22854 28
18284 22851 22855 28
18285 22856 22857 28
18286 22856 22858 28
18287 22856 22859 28
18288 22856 22860 28
18289 22861 22862 28
18290 22861 22863 28
18291 22861 22864 28
18292 22861 22865 28
18293 22866 22867 28
18294 22866 22868 28
18295 22866 22869 28
18296 22866 22870 28
18297 22871 22872 28
18298 22871 22873 28
18299 22871 22874 28
18300 22871 22875 28
18301 22876 22877 28
18302 22876 22878 28
18303 22876 22879 28
18304 22876 22880 28
18305 22881 22882 28
18306 22881 22883 28
18307 22881 22884 28
18308 22881 22885 28
18309 22886 22887 28
18310 22886 22888 28
18311 22886 22889 28
18312 22886 22890 28
18313 22891 22892 28
18314 22891 22893 28
18315 22891 22894 28
18316 22891 22895 28
18317 22896 22897 28
18318 22896 22898 28
18319 22896 22899 28
18320 22896 22900 28
18321 22901 22902 28
18322 22901 22903 28
18323 22901 22904 28
18324 22901 22905 28
18325 22906 22907 28
18326 22906 22908 28
18327 22906 22909 28
18328 22906 22910 28
18329 22911 22912 28
18330 22911 22913 28
18331 22911 22914 28
18332 22911 22915 28
18333 22916 22917 28
18334 22916 22918 28
18335 22916 22919 28
18336 22916 22920 28
18337 22921 22922 28
18338 22921 22923 28
18339 22921 22924 28
18340 22921 22925 28
18341 22926 22927 28
18342 22926 22928 28
18343 22926 22929 28
18344 22926 22930 28
18345 22931 22932 28
18346 22931 22933 28
18347 22931 22934 28
18348 22931 22935 28
18349 22936 22937 28
18350 22936 22938 28
18351 22936 22939 28
18352 22936 22940 28
18353 22941 22942 28
18354 22941 22943 28
18355 22941 22944 28
18356 22941 22945 28
18357 22946 22947 28
18358 22946 22948 28
18359 22946 22949 28
18360 22946 22950 28
18361 22951 22952 28
18362 22951 22953 28
18363 22951 22954 28
18364 22951 22955 28
18365 22956 22957 28
18366 22956 22958 28
18367 22956 22959 28
18368 22956 22960 28
18369 22961 22962 28
18370 22961 22963 28
18371 22961 22964 28
18372 22961 22965 28
18373 22966 22967 28
18374 22966 22968 28
18375 22966 22969 28
18376 22966 22970 28
18377 22971 22972 28
18378 22971 22973 28
18379 22971 22974 28
18380 22971 22975 28
18381 22976 22977 28
18382 22976 22978 28
18383 22976 22979 28
18384 22976 22980 28
18385 22981 22982 28
18386 22981 22983 28
18387 22981 22984 28
18388 22981 22985 28
18389 22986 22987 28
18390 22986 22988 28
18391 22986 22989 28
18392 22986 22990 28
18393 22991 22992 28
18394 22991 22993 28
18395 22991 22994 28
18396 22991 22995 28
18397 22996 22997 28
18398 22996 22998 28
18399 22996 22999 28
18400 22996 23000 28
18401 23001 23002 28
18402 23001 23003 28
18403 23001 23004 28
18404 23001 23005 28
18405 23006 23007 28
18406 23006 23008 28
18407 23006 23009 28
18408 23006 23010 28
18409 23011 23012 28
18410 23011 23013 28
18411 23011 23014 28
18412 23011 23015 28
18413 23016 23017 28
18414 23016 23018 28
18415 23016 23019 28
18416 23016 23020 28
18417 23021 23022 28
18418 23021 23023 28
18419 23021 23024 28
18420 23021 23025 28
18421 23026 23027 28
18422 23026 23028 28
18423 23026 23029 28
18424 23026 23030 28
18425 23031 23032 28
18426 23031 23033 28
18427 23031 23034 28
18428 23031 23035 28
18429 23036 23037 28
18430 23036 23038 28
18431 23036 23039 28
18432 23036 23040 28
18433 23041 23042 28
18434 23041 23043 28
18435 23041 23044 28
18436 23041 23045 28
18437 23046 23047 28
18438 23046 23048 28
18439 23046 23049 28
18440 23046 23050 28
18441 23051 23052 28
18442 23051 23053 28
18443 23051 23054 28
18444 23051 23055 28
18445 23056 23057 28
18446 23056 23058 28
18447 23056 23059 28
18448 23056 23060 28
18449 23061 23062 28
18450 23061 23063 28
18451 23061 23064 28
18452 23061 23065 28
18453 23066 23067 28
18454 23066 23068 28
18455 23066 23069 28
18456 23066 23070 28
18457 23071 23072 28
18458 23071 23073 28
18459 23071 23074 28
18460 23071 23075 28
18461 23076 23077 28
18462 23076 23078 28
18463 23076 23079 28
18464 23076 23080 28
18465 23081 23082 28
18466 23081 23083 28
18467 23081 23084 28
18468 23081 23085 28
18469 23086 23087 28
18470 23086 23088 28
18471 23086 23089 28
18472 23086 23090 28
18473 23091 23092 28
18474 23091 23093 28
18475 23091 23094 28
18476 23091 23095 28
18477 23096 23097 28
18478 23096 23098 28
18479 23096 23099 28
18480 23096 23100 28
18481 23101 23102 28
18482 23101 23103 28
18483 23101 23104 28
18484 23101 23105 28
18485 23106 23107 28
18486 23106 23108 28
18487 23106 23109 28
18488 23106 23110 28
18489 23111 23112 28
18490 23111 23113 28
18491 23111 23114 28
18492 23111 23115 28
18493 23116 23117 28
18494 23116 23118 28
18495 23116 23119 28
18496 23116 23120 28
18497 23121 23122 28
18498 23121 23123 28
18499 23121 23124 28
18500 23121 23125 28
18501 23126 23127 28
18502 23126 23128 28
18503 23126 23129 28
18504 23126 23130 28
18505 23131 23132 28
18506 23131 23133 28
18507 23131 23134 28
18508 23131 23135 28
18509 23136 23137 28
18510 23136 23138 28
18511 23136 23139 28
18512 23136 23140 28
18513 23141 23142 28
18514 23141 23143 28
18515 23141 23144 28
18516 23141 23145 28
18517 23146 23147 28
18518 23146 23148 28
18519 23146 23149 28
18520 23146 23150 28
18521 23151 23152 28
18522 23151 23153 28
18523 23151 23154 28
18524 23151 23155 28
18525 23156 23157 28
18526 23156 23158 28
18527 23156 23159 28
18528 23156 23160 28
18529 23161 23162 28
18530 23161 23163 28
18531 23161 23164 28
18532 23161 23165 28
18533 23166 23167 28
18534 23166 23168 28
18535 23166 23169 28
18536 23166 23170 28
18537 23171 23172 28
18538 23171 23173 28
18539 23171 23174 28
18540 23171 23175 28
18541 23176 23177 28
18542 23176 23178 28
18543 23176 23179 28
18544 23176 23180 28
18545 23181 23182 28
18546 23181 23183 28
18547 23181 23184 28
18548 23181 23185 28
18549 23186 23187 28
18550 23186 23188 28
18551 23186 23189 28
18552 23186 23190 28
18553 23191 23192 28
18554 23191 23193 28
18555 23191 23194 28
18556 23191 23195 28
18557 23196 23197 28
18558 23196 23198 28
18559 23196 23199 28
18560 23196 23200 28
18561 23201 23202 28
18562 23201 23203 28
18563 23201 23204 28
18564 23201 23205 28
18565 23206 23207 28
18566 23206 23208 28
18567 23206 23209 28
18568 23206 23210 28
18569 23211 23212 28
18570 23211 23213 28
18571 23211 23214 28
18572 23211 23215 28
18573 23216 23217 28
18574 23216 23218 28
18575 23216 23219 28
18576 23216 23220 28
18577 23221 23222 28
18578 23221 23223 28
18579 23221 23224 28
18580 23221 23225 28
18581 23226 23227 28
18582 23226 23228 28
18583 23226 23229 28
18584 23226 23230 28
18585 23231 23232 28
18586 23231 23233 28
18587 23231 23234 28
18588 23231 23235 28
18589 23236 23237 28
18590 23236 23238 28
18591 23236 23239 28
18592 23236 23240 28
18593 23241 23242 28
18594 23241 23243 28
18595 23241 23244 28
18596 23241 23245 28
18597 23246 23247 28
18598 23246 23248 28
18599 23246 23249 28
18600 23246 23250 28
18601 23251 23252 28
18602 23251 23253 28
18603 23251 23254 28
18604 23251 23255 28
18605 23256 23257 28
18606 23256 23258 28
18607 23256 23259 28
18608 23256 23260 28
18609 23261 23262 28
18610 23261 23263 28
18611 23261 23264 28
18612 23261 23265 28
18613 23266 23267 28
18614 23266 23268 28
18615 23266 23269 28
18616 23266 23270 28
18617 23271 23272 28
18618 23271 23273 28
18619 23271 23274 28
18620 23271 23275 28
18621 23276 23277 28
18622 23276 23278 28
18623 23276 23279 28
18624 23276 23280 28
18625 23281 23282 28
18626 23281 23283 28
18627 23281 23284 28
18628 23281 23285 28
18629 23286 23287 28
18630 23286 23288 28
18631 23286 23289 28
18632 23286 23290 28
18633 23291 23292 28
18634 23291 23293 28
18635 23291 23294 28
18636 23291 23295 28
18637 23296 23297 28
18638 23296 23298 28
18639 23296 23299 28
18640 23296 23300 28
18641 23301 23302 28
18642 23301 23303 28
18643 23301 23304 28
18644 23301 23305 28
18645 23306 23307 28
18646 23306 23308 28
18647 23306 23309 28
18648 23306 23310 28
18649 23311 23312 28
18650 23311 23313 28
18651 23311 23314 28
18652 23311 23315 28
18653 23316 23317 28
18654 23316 23318 28
18655 23316 23319 28
18656 23316 23320 28
18657 23321 23322 28
18658 23321 23323 28
18659 23321 23324 28
18660 23321 23325 28
18661 23326 23327 28
18662 23326 23328 28
18663 23326 23329 28
18664 23326 23330 28
18665 23331 23332 28
18666 23331 23333 28
18667 23331 23334 28
18668 23331 23335 28
18669 23336 23337 28
18670 23336 23338 28
18671 23336 23339 28
18672 23336 23340 28
18673 23341 23342 28
18674 23341 23343 28
18675 23341 23344 28
18676 23341 23345 28
18677 23346 23347 28
18678 23346 23348 28
18679 23346 23349 28
18680 23346 23350 28
18681 23351 23352 28
18682 23351 23353 28
18683 23351 23354 28
18684 23351 23355 28
18685 23356 23357 28
18686 23356 23358 28
18687 23356 23359 28
18688 23356 23360 28
18689 23361 23362 28
18690 23361 23363 28
18691 23361 23364 28
18692 23361 23365 28
18693 23366 23367 28
18694 23366 23368 28
18695 23366 23369 28
18696 23366 23370 28
18697 23371 23372 28
18698 23371 23373 28
18699 23371 23374 28
18700 23371 23375 28
18701 23376 23377 28
18702 23376 23378 28
18703 23376 23379 28
18704 23376 23380 28
18705 23381 23382 28
18706 23381 23383 28
18707 23381 23384 28
18708 23381 23385 28
18709 23386 23387 28
18710 23386 23388 28
18711 23386 23389 28
18712 23386 23390 28
18713 23391 23392 28
18714 23391 23393 28
18715 23391 23394 28
18716 23391 23395 28
18717 23396 23397 28
18718 23396 23398 28
18719 23396 23399 28
18720 23396 23400 28
18721 23401 23402 28
18722 23401 23403 28
18723 23401 23404 28
18724 23401 23405 28
18725 23406 23407 28
18726 23406 23408 28
18727 23406 23409 28
18728 23406 23410 28
18729 23411 23412 28
18730 23411 23413 28
18731 23411 23414 28
18732 23411 23415 28
18733 23416 23417 28
18734 23416 23418 28
18735 23416 23419 28
18736 23416 23420 28
18737 23421 23422 28
18738 23421 23423 28
18739 23421 23424 28
18740 23421 23425 28
18741 23426 23427 28
18742 23426 23428 28
18743 23426 23429 28
18744 23426 23430 28
18745 23431 23432 28
18746 23431 23433 28
18747 23431 23434 28
18748 23431 23435 28
18749 23436 23437 28
18750 23436 23438 28
18751 23436 23439 28
18752 23436 23440 28
18753 23441 23442 28
18754 23441 23443 28
18755 23441 23444 28
18756 23441 23445 28
18757 23446 23447 28
18758 23446 23448 28
18759 23446 23449 28
18760 23446 23450 28
18761 23451 23452 28
18762 23451 23453 28
18763 23451 23454 28
18764 23451 23455 28
18765 23456 23457 28
18766 23456 23458 28
18767 23456 23459 28
18768 23456 23460 28
18769 23461 23462 28
18770 23461 23463 28
18771 23461 23464 28
18772 23461 23465 28
18773 23466 23467 28
18774 23466 23468 28
18775 23466 23469 28
18776 23466 23470 28
18777 23471 23472 28
18778 23471 23473 28
18779 23471 23474 28
18780 23471 23475 28
18781 23476 23477 28
18782 23476 23478 28
18783 23476 23479 28
18784 23476 23480 28
18785 23481 23482 28
18786 23481 23483 28
18787 23481 23484 28
18788 23481 23485 28
18789 23486 23487 28
18790 23486 23488 28
18791 23486 23489 28
18792 23486 23490 28
18793 23491 23492 28
18794 23491 23493 28
18795 23491 23494 28
18796 23491 23495 28
18797 23496 23497 28
18798 23496 23498 28
18799 23496 23499 28
18800 23496 23500 28
18801 23501 23502 28
18802 23501 23503 28
18803 23501 23504 28
18804 23501 23505 28
18805 23506 23507 28
18806 23506 23508 28
18807 23506 23509 28
18808 23506 23510 28
18809 23511 23512 28
18810 23511 23513 28
18811 23511 23514 28
18812 23511 23515 28
18813 23516 23517 28
18814 23516 23518 28
18815 23516 23519 28
18816 23516 23520 28
18817 23521 23522 28
18818 23521 23523 28
18819 23521 23524 28
18820 23521 23525 28
18821 23526 23527 28
18822 23526 23528 28
18823 23526 23529 28
18824 23526 23530 28
18825 23531 23532 28
18826 23531 23533 28
18827 23531 23534 28
18828 23531 23535 28
18829 23536 23537 28
18830 23536 23538 28
18831 23536 23539 28
18832 23536 23540 28
18833 23541 23542 28
18834 23541 23543 28
18835 23541 23544 28
18836 23541 23545 28
18837 23546 23547 28
18838 23546 23548 28
18839 23546 23549 28
18840 23546 23550 28
18841 23551 23552 28
18842 23551 23553 28
18843 23551 23554 28
18844 23551 23555 28
18845 23556 23557 28
18846 23556 23558 28
18847 23556 23559 28
18848 23556 23560 28
18849 23561 23562 28
18850 23561 23563 28
18851 23561 23564 28
18852 23561 23565 28
18853 23566 23567 28
18854 23566 23568 28
18855 23566 23569 28
18856 23566 23570 28
18857 23571 23572 28
18858 23571 23573 28
18859 23571 23574 28
18860 23571 23575 28
18861 23576 23577 28
18862 23576 23578 28
18863 23576 23579 28
18864 23576 23580 28
18865 23581 23582 28
18866 23581 23583 28
18867 23581 23584 28
18868 23581 23585 28
18869 23586 23587 28
18870 23586 23588 28
18871 23586 23589 28
18872 23586 23590 28
18873 23591 23592 28
18874 23591 23593 28
18875 23591 23594 28
18876 23591 23595 28
18877 23596 23597 28
18878 23596 23598 28
18879 23596 23599 28
18880 23596 23600 28
18881 23601 23602 28
18882 23601 23603 28
18883 23601 23604 28
18884 23601 23605 28
18885 23606 23607 28
18886 23606 23608 28
18887 23606 23609 28
18888 23606 23610 28
18889 23611 23612 28
18890 23611 23613 28
18891 23611 23614 28
18892 23611 23615 28
18893 23616 23617 28
18894 23616 23618 28
18895 23616 23619 28
18896 23616 23620 28
18897 23621 23622 28
18898 23621 23623 28
18899 23621 23624 28
18900 23621 23625 28
18901 23626 23627 28
18902 23626 23628 28
18903 23626 23629 28
18904 23626 23630 28
18905 23631 23632 28
18906 23631 23633 28
18907 23631 23634 28
18908 23631 23635 28
18909 23636 23637 28
18910 23636 23638 28
18911 23636 23639 28
18912 23636 23640 28
18913 23641 23642 28
18914 23641 23643 28
18915 23641 23644 28
18916 23641 23645 28
18917 23646 23647 28
18918 23646 23648 28
18919 23646 23649 28
18920 23646 23650 28
18921 23651 23652 28
18922 23651 23653 28
18923 23651 23654 28
18924 23651 23655 28
18925 23656 23657 28
18926 23656 23658 28
18927 23656 23659 28
18928 23656 23660 28
18929 23661 23662 28
18930 23661 23663 28
18931 23661 23664 28
18932 23661 23665 28
18933 23666 23667 28
18934 23666 23668 28
18935 23666 23669 28
18936 23666 23670 28
18937 23671 23672 28
18938 23671 23673 28
18939 23671 23674 28
18940 23671 23675 28
18941 23676 23677 28
18942 23676 23678 28
18943 23676 23679 28
18944 23676 23680 28
18945 23681 23682 28
18946 23681 23683 28
18947 23681 23684 28
18948 23681 23685 28
18949 23686 23687 28
18950 23686 23688 28
18951 23686 23689 28
18952 23686 23690 28
18953 23691 23692 28
18954 23691 23693 28
18955 23691 23694 28
18956 23691 23695 28
18957 23696 23697 28
18958 23696 23698 28
18959 23696 23699 28
18960 23696 23700 28
18961 23701 23702 28
18962 23701 23703 28
18963 23701 23704 28
18964 23701 23705 28
18965 23706 23707 28
18966 23706 23708 28
18967 23706 23709 28
18968 23706 23710 28
18969 23711 23712 28
18970 23711 23713 28
18971 23711 23714 28
18972 23711 23715 28
18973 23716 23717 28
18974 23716 23718 28
18975 23716 23719 28
18976 23716 23720 28
18977 23721 23722 28
18978 23721 23723 28
18979 23721 23724 28
18980 23721 23725 28
18981 23726 23727 28
18982 23726 23728 28
18983 23726 23729 28
18984 23726 23730 28
18985 23731 23732 28
18986 23731 23733 28
18987 23731 23734 28
18988 23731 23735 28
18989 23736 23737 28
18990 23736 23738 28
18991 23736 23739 28
18992 23736 23740 28
18993 23741 23742 28
18994 23741 23743 28
18995 23741 23744 28
18996 23741 23745 28
18997 23746 23747 28
18998 23746 23748 28
18999 23746 23749 28
19000 23746 23750 28
19001 23751 23752 28
19002 23751 23753 28
19003 23751 23754 28
19004 23751 23755 28
19005 23756 23757 28
19006 23756 23758 28
19007 23756 23759 28
19008 23756 23760 28
19009 23761 23762 28
19010 23761 23763 28
19011 23761 23764 28
19012 23761 23765 28
19013 23766 23767 28
19014 23766 23768 28
19015 23766 23769 28
19016 23766 23770 28
19017 23771 23772 28
19018 23771 23773 28
19019 23771 23774 28
19020 23771 23775 28
19021 23776 23777 28
19022 23776 23778 28
19023 23776 23779 28
19024 23776 23780 28
19025 23781 23782 28
19026 23781 23783 28
19027 23781 23784 28
19028 23781 23785 28
19029 23786 23787 28
19030 23786 23788 28
19031 23786 23789 28
19032 23786 23790 28
19033 23791 23792 28
19034 23791 23793 28
19035 23791 23794 28
19036 23791 23795 28
19037 23796 23797 28
19038 23796 23798 28
19039 23796 23799 28
19040 23796 23800 28
19041 23801 23802 28
19042 23801 23803 28
19043 23801 23804 28
19044 23801 23805 28
19045 23806 23807 28
19046 23806 23808 28
19047 23806 23809 28
19048 23806 23810 28
19049 23811 23812 28
19050 23811 23813 28
19051 23811 23814 28
19052 23811 23815 28
19053 23816 23817 28
19054 23816 23818 28
19055 23816 23819 28
19056 23816 23820 28
19057 23821 23822 28
19058 23821 23823 28
19059 23821 23824 28
19060 23821 23825 28
19061 23826 23827 28
19062 23826 23828 28
19063 23826 23829 28
19064 23826 23830 28
19065 23831 23832 28
19066 23831 23833 28
19067 23831 23834 28
19068 23831 23835 28
19069 23836 23837 28
19070 23836 23838 28
19071 23836 23839 28
19072 23836 23840 28
19073 23841 23842 28
19074 23841 23843 28
19075 23841 23844 28
19076 23841 23845 28
19077 23846 23847 28
19078 23846 23848 28
19079 23846 23849 28
19080 23846 23850 28
19081 23851 23852 28
19082 23851 23853 28
19083 23851 23854 28
19084 23851 23855 28
19085 23856 23857 28
19086 23856 23858 28
19087 23856 23859 28
19088 23856 23860 28
19089 23861 23862 28
19090 23861 23863 28
19091 23861 23864 28
19092 23861 23865 28
19093 23866 23867 28
19094 23866 23868 28
19095 23866 23869 28
19096 23866 23870 28
19097 23871 23872 28
19098 23871 23873 28
19099 23871 23874 28
19100 23871 23875 28
19101 23876 23877 28
19102 23876 23878 28
19103 23876 23879 28
19104 23876 23880 28
19105 23881 23882 28
19106 23881 23883 28
19107 23881 23884 28
19108 23881 23885 28
19109 23886 23887 28
19110 23886 23888 28
19111 23886 23889 28
19112 23886 23890 28
19113 23891 23892 28
19114 23891 23893 28
19115 23891 23894 28
19116 23891 23895 28
19117 23896 23897 28
19118 23896 23898 28
19119 23896 23899 28
19120 23896 23900 28
19121 23901 23902 28
19122 23901 23903 28
19123 23901 23904 28
19124 23901 23905 28
19125 23906 23907 28
19126 23906 23908 28
19127 23906 23909 28
19128 23906 23910 28
19129 23911 23912 28
19130 23911 23913 28
19131 23911 23914 28
19132 23911 23915 28
19133 23916 23917 28
19134 23916 23918 28
19135 23916 23919 28
19136 23916 23920 28
19137 23921 23922 28
19138 23921 23923 28
19139 23921 23924 28
19140 23921 23925 28
19141 23926 23927 28
19142 23926 23928 28
19143 23926 23929 28
19144 23926 23930 28
19145 23931 23932 28
19146 23931 23933 28
19147 23931 23934 28
19148 23931 23935 28
19149 23936 23937 28
19150 23936 23938 28
19151 23936 23939 28
19152 23936 23940 28
19153 23941 23942 28
19154 23941 23943 28
19155 23941 23944 28
19156 23941 23945 28
19157 23946 23947 28
19158 23946 23948 28
19159 23946 23949 28
19160 23946 23950 28
19161 23951 23952 28
19162 23951 23953 28
19163 23951 23954 28
19164 23951 23955 28
19165 23956 23957 28
19166 23956 23958 28
19167 23956 23959 28
19168 23956 23960 28
19169 23961 23962 28
19170 23961 23963 28
19171 23961 23964 28
19172 23961 23965 28
19173 23966 23967 28
19174 23966 23968 28
19175 23966 23969 28
19176 23966 23970 28
19177 23971 23972 28
19178 23971 23973 28
19179 23971 23974 28
19180 23971 23975 28
19181 23976 23977 28
19182 23976 23978 28
19183 23976 23979 28
19184 23976 23980 28
19185 23981 23982 28
19186 23981 23983 28
19187 23981 23984 28
19188 23981 23985 28
19189 23986 23987 28
19190 23986 23988 28
19191 23986 23989 28
19192 23986 23990 28
19193 23991 23992 28
19194 23991 23993 28
19195 23991 23994 28
19196 23991 23995 28
19197 23996 23997 28
19198 23996 23998 28
19199 23996 23999 28
19200 23996 24000 28
19201 24001 24002 28
19202 24001 24003 28
19203 24001 24004 28
19204 24001 24005 28
19205 24006 24007 28
19206 24006 24008 28
19207 24006 24009 28
19208 24006 24010 28
19209 24011 24012 28
19210 24011 24013 28
19211 24011 24014 28
19212 24011 24015 28
19213 24016 24017 28
19214 24016 24018 28
19215 24016 24019 28
19216 24016 24020 28
19217 24021 24022 28
19218 24021 24023 28
19219 24021 24024 28
19220 24021 24025 28
19221 24026 24027 28
19222 24026 24028 28
19223 24026 24029 28
19224 24026 24030 28
19225 24031 24032 28
19226 24031 24033 28
19227 24031 24034 28
19228 24031 24035 28
19229 24036 24037 28
19230 24036 24038 28
19231 24036 24039 28
19232 24036 24040 28
19233 24041 24042 28
19234 24041 24043 28
19235 24041 24044 28
19236 24041 24045 28
19237 24046 24047 28
19238 24046 24048 28
19239 24046 24049 28
19240 24046 24050 28
19241 24051 24052 28
19242 24051 24053 28
19243 24051 24054 28
19244 24051 24055 28
19245 24056 24057 28
19246 24056 24058 28
19247 24056 24059 28
19248 24056 24060 28
19249 24061 24062 28
19250 24061 24063 28
19251 24061 24064 28
19252 24061 24065 28
19253 24066 24067 28
19254 24066 24068 28
19255 24066 24069 28
19256 24066 24070 28
19257 24071 24072 28
19258 24071 24073 28
19259 24071 24074 28
19260 24071 24075 28
19261 24076 24077 28
19262 24076 24078 28
19263 24076 24079 28
19264 24076 24080 28
19265 24081 24082 28
19266 24081 24083 28
19267 24081 24084 28
19268 24081 24085 28
19269 24086 24087 28
19270 24086 24088 28
19271 24086 24089 28
19272 24086 24090 28
19273 24091 24092 28
19274 24091 24093 28
19275 24091 24094 28
19276 24091 24095 28
19277 24096 24097 28
19278 24096 24098 28
19279 24096 24099 28
19280 24096 24100 28
19281 24101 24102 28
19282 24101 24103 28
19283 24101 24104 28
19284 24101 24105 28
19285 24106 24107 28
19286 24106 24108 28
19287 24106 24109 28
19288 24106 24110 28
19289 24111 24112 28
19290 24111 24113 28
19291 24111 24114 28
19292 24111 24115 28
19293 24116 24117 28
19294 24116 24118 28
19295 24116 24119 28
19296 24116 24120 28
19297 24121 24122 28
19298 24121 24123 28
19299 24121 24124 28
19300 24121 24125 28
19301 24126 24127 28
19302 24126 24128 28
19303 24126 24129 28
19304 24126 24130 28
19305 24131 24132 28
19306 24131 24133 28
19307 24131 24134 28
19308 24131 24135 28
19309 24136 24137 28
19310 24136 24138 28
19311 24136 24139 28
19312 24136 24140 28
19313 24141 24142 28
19314 24141 24143 28
19315 24141 24144 28
19316 24141 24145 28
19317 24146 24147 28
19318 24146 24148 28
19319 24146 24149 28
19320 24146 24150 28
19321 24151 24152 28
19322 24151 24153 28
19323 24151 24154 28
19324 24151 24155 28
19325 24156 24157 28
19326 24156 24158 28
19327 24156 24159 28
19328 24156 24160 28
19329 24161 24162 28
19330 24161 24163 28
19331 24161 24164 28
19332 24161 24165 28
19333 24166 24167 28
19334 24166 24168 28
19335 24166 24169 28
19336 24166 24170 28
19337 24171 24172 28
19338 24171 24173 28
19339 24171 24174 28
19340 24171 24175 28
19341 24176 24177 28
19342 24176 24178 28
19343 24176 24179 28
19344 24176 24180 28
19345 24181 24182 28
19346 24181 24183 28
19347 24181 24184 28
19348 24181 24185 28
19349 24186 24187 28
19350 24186 24188 28
19351 24186 24189 28
19352 24186 24190 28
19353 24191 24192 28
19354 24191 24193 28
19355 24191 24194 28
19356 24191 24195 28
19357 24196 24197 28
19358 24196 24198 28
19359 24196 24199 28
19360 24196 24200 28
19361 24201 24202 28
19362 24201 24203 28
19363 24201 24204 28
19364 24201 24205 28
19365 24206 24207 28
19366 24206 24208 28
19367 24206 24209 28
19368 24206 24210 28
19369 24211 24212 28
19370 24211 24213 28
19371 24211 24214 28
19372 24211 24215 28
19373 24216 24217 28
19374 24216 24218 28
19375 24216 24219 28
19376 24216 24220 28
19377 24221 24222 28
19378 24221 24223 28
19379 24221 24224 28
19380 24221 24225 28
19381 24226 24227 28
19382 24226 24228 28
19383 24226 24229 28
19384 24226 24230 28
19385 24231 24232 28
19386 24231 24233 28
19387 24231 24234 28
19388 24231 24235 28
19389 24236 24237 28
19390 24236 24238 28
19391 24236 24239 28
19392 24236 24240 28
19393 24241 24242 28
19394 24241 24243 28
19395 24241 24244 28
19396 24241 24245 28
19397 24246 24247 28
19398 24246 24248 28
19399 24246 24249 28
19400 24246 24250 28
19401 24251 24252 28
19402 24251 24253 28
19403 24251 24254 28
19404 24251 24255 28
19405 24256 24257 28
19406 24256 24258 28
19407 24256 24259 28
19408 24256 24260 28
19409 24261 24262 28
19410 24261 24263 28
19411 24261 24264 28
19412 24261 24265 28
19413 24266 24267 28
19414 24266 24268 28
19415 24266 24269 28
19416 24266 24270 28
19417 24271 24272 28
19418 24271 24273 28
19419 24271 24274 28
19420 24271 24275 28
19421 24276 24277 28
19422 24276 24278 28
19423 24276 24279 28
19424 24276 24280 28
19425 24281 24282 28
19426 24281 24283 28
19427 24281 24284 28
19428 24281 24285 28
19429 24286 24287 28
19430 24286 24288 28
19431 24286 24289 28
19432 24286 24290 28
19433 24291 24292 28
19434 24291 24293 28
19435 24291 24294 28
19436 24291 24295 28
19437 24296 24297 28
19438 24296 24298 28
19439 24296 24299 28
19440 24296 24300 28
19441 24301 24302 28
19442 24301 24303 28
19443 24301 24304 28
19444 24301 24305 28
19445 24306 24307 28
19446 24306 24308 28
19447 24306 24309 28
19448 24306 24310 28
19449 24311 24312 28
19450 24311 24313 28
19451 24311 24314 28
19452 24311 24315 28
19453 24316 24317 28
19454 24316 24318 28
19455 24316 24319 28
19456 24316 24320 28
19457 24321 24322 28
19458 24321 24323 28
19459 24321 24324 28
19460 24321 24325 28
19461 24326 24327 28
19462 24326 24328 28
19463 24326 24329 28
19464 24326 24330 28
19465 24331 24332 28
19466 24331 24333 28
19467 24331 24334 28
19468 24331 24335 28
19469 24336 24337 28
19470 24336 24338 28
19471 24336 24339 28
19472 24336 24340 28
19473 24341 24342 28
19474 24341 24343 28
19475 24341 24344 28
19476 24341 24345 28
19477 24346 24347 28
19478 24346 24348 28
19479 24346 24349 28
19480 24346 24350 28
19481 24351 24352 28
19482 24351 24353 28
19483 24351 24354 28
19484 24351 24355 28
19485 24356 24357 28
19486 24356 24358 28
19487 24356 24359 28
19488 24356 24360 28
19489 24361 24362 28
19490 24361 24363 28
19491 24361 24364 28
19492 24361 24365 28
19493 24366 24367 28
19494 24366 24368 28
19495 24366 24369 28
19496 24366 24370 28
19497 24371 24372 28
19498 24371 24373 28
19499 24371 24374 28
19500 24371 24375 28
19501 24376 24377 28
19502 24376 24378 28
19503 24376 24379 28
19504 24376 24380 28
19505 24381 24382 28
19506 24381 24383 28
19507 24381 24384 28
19508 24381 24385 28
19509 24386 24387 28
19510 24386 24388 28
19511 24386 24389 28
19512 24386 24390 28
19513 24391 24392 28
19514 24391 24393 28
19515 24391 24394 28
19516 24391 24395 28
19517 24396 24397 28
19518 24396 24398 28
19519 24396 24399 28
19520 24396 24400 28
19521 24401 24402 28
19522 24401 24403 28
19523 24401 24404 28
19524 24401 24405 28
19525 24406 24407 28
19526 24406 24408 28
19527 24406 24409 28
19528 24406 24410 28
19529 24411 24412 28
19530 24411 24413 28
19531 24411 24414 28
19532 24411 24415 28
19533 24416 24417 28
19534 24416 24418 28
19535 24416 24419 28
19536 24416 24420 28
19537 24421 24422 28
19538 24421 24423 28
19539 24421 24424 28
19540 24421 24425 28
19541 24426 24427 28
19542 24426 24428 28
19543 24426 24429 28
19544 24426 24430 28
19545 24431 24432 28
19546 24431 24433 28
19547 24431 24434 28
19548 24431 24435 28
19549 24436 24437 28
19550 24436 24438 28
19551 24436 24439 28
19552 24436 24440 28
19553 24441 24442 28
19554 24441 24443 28
19555 24441 24444 28
19556 24441 24445 28
19557 24446 24447 28
19558 24446 24448 28
19559 24446 24449 28
19560 24446 24450 28
19561 24451 24452 28
19562 24451 24453 28
19563 24451 24454 28
19564 24451 24455 28
19565 24456 24457 28
19566 24456 24458 28
19567 24456 24459 28
19568 24456 24460 28
19569 24461 24462 28
19570 24461 24463 28
19571 24461 24464 28
19572 24461 24465 28
19573 24466 24467 28
19574 24466 24468 28
19575 24466 24469 28
19576 24466 24470 28
19577 24471 24472 28
19578 24471 24473 28
19579 24471 24474 28
19580 24471 24475 28
19581 24476 24477 28
19582 24476 24478 28
19583 24476 24479 28
19584 24476 24480 28
19585 24481 24482 28
19586 24481 24483 28
19587 24481 24484 28
19588 24481 24485 28
19589 24486 24487 28
19590 24486 24488 28
19591 24486 24489 28
19592 24486 24490 28
19593 24491 24492 28
19594 24491 24493 28
19595 24491 24494 28
19596 24491 24495 28
19597 24496 24497 28
19598 24496 24498 28
19599 24496 24499 28
19600 24496 24500 28
19601 24501 24502 28
19602 24501 24503 28
19603 24501 24504 28
19604 24501 24505 28
19605 24506 24507 28
19606 24506 24508 28
19607 24506 24509 28
19608 24506 24510 28
19609 24511 24512 28
19610 24511 24513 28
19611 24511 24514 28
19612 24511 24515 28
19613 24516 24517 28
19614 24516 24518 28
19615 24516 24519 28
19616 24516 24520 28
19617 24521 24522 28
19618 24521 24523 28
19619 24521 24524 28
19620 24521 24525 28
19621 24526 24527 28
19622 24526 24528 28
19623 24526 24529 28
19624 24526 24530 28
19625 24531 24532 28
19626 24531 24533 28
19627 24531 24534 28
19628 24531 24535 28
19629 24536 24537 28
19630 24536 24538 28
19631 24536 24539 28
19632 24536 24540 28
19633 24541 24542 28
19634 24541 24543 28
19635 24541 24544 28
19636 24541 24545 28
19637 24546 24547 28
19638 24546 24548 28
19639 24546 24549 28
19640 24546 24550 28
19641 24551 24552 28
19642 24551 24553 28
19643 24551 24554 28
19644 24551 24555 28
19645 24556 24557 28
19646 24556 24558 28
19647 24556 24559 28
19648 24556 24560 28
19649 24561 24562 28
19650 24561 24563 28
19651 24561 24564 28
19652 24561 24565 28
19653 24566 24567 28
19654 24566 24568 28
19655 24566 24569 28
19656 24566 24570 28
19657 24571 24572 28
19658 24571 24573 28
19659 24571 24574 28
19660 24571 24575 28
19661 24576 24577 28
19662 24576 24578 28
19663 24576 24579 28
19664 24576 24580 28
19665 24581 24582 28
19666 24581 24583 28
19667 24581 24584 28
19668 24581 24585 28
19669 24586 24587 28
19670 24586 24588 28
19671 24586 24589 28
19672 24586 24590 28
19673 24591 24592 28
19674 24591 24593 28
19675 24591 24594 28
19676 24591 24595 28
19677 24596 24597 28
19678 24596 24598 28
19679 24596 24599 28
19680 24596 24600 28
19681 24601 24602 28
19682 24601 24603 28
19683 24601 24604 28
19684 24601 24605 28
19685 24606 24607 28
19686 24606 24608 28
19687 24606 24609 28
19688 24606 24610 28
19689 24611 24612 28
19690 24611 24613 28
19691 24611 24614 28
19692 24611 24615 28
19693 24616 24617 28
19694 24616 24618 28
19695 24616 24619 28
19696 24616 24620 28
19697 24621 24622 28
19698 24621 24623 28
19699 24621 24624 28
19700 24621 24625 28
19701 24626 24627 28
19702 24626 24628 28
19703 24626 24629 28
19704 24626 24630 28
19705 24631 24632 28
19706 24631 24633 28
19707 24631 24634 28
19708 24631 24635 28
19709 24636 24637 28
19710 24636 24638 28
19711 24636 24639 28
19712 24636 24640 28
19713 24641 24642 28
19714 24641 24643 28
19715 24641 24644 28
19716 24641 24645 28
19717 24646 24647 28
19718 24646 24648 28
19719 24646 24649 28
19720 24646 24650 28
19721 24651 24652 28
19722 24651 24653 28
19723 24651 24654 28
19724 24651 24655 28
19725 24656 24657 28
19726 24656 24658 28
19727 24656 24659 28
19728 24656 24660 28
19729 24661 24662 28
19730 24661 24663 28
19731 24661 24664 28
19732 24661 24665 28
19733 24666 24667 28
19734 24666 24668 28
19735 24666 24669 28
19736 24666 24670 28
19737 24671 24672 28
19738 24671 24673 28
19739 24671 24674 28
19740 24671 24675 28
19741 24676 24677 28
19742 24676 24678 28
19743 24676 24679 28
19744 24676 24680 28
19745 24681 24682 28
19746 24681 24683 28
19747 24681 24684 28
19748 24681 24685 28
19749 24686 24687 28
19750 24686 24688 28
19751 24686 24689 28
19752 24686 24690 28
19753 24691 24692 28
19754 24691 24693 28
19755 24691 24694 28
19756 24691 24695 28
19757 24696 24697 28
19758 24696 24698 28
19759 24696 24699 28
19760 24696 24700 28
19761 24701 24702 28
19762 24701 24703 28
19763 24701 24704 28
19764 24701 24705 28
19765 24706 24707 28
19766 24706 24708 28
19767 24706 24709 28
19768 24706 24710 28
19769 24711 24712 28
19770 24711 24713 28
19771 24711 24714 28
19772 24711 24715 28
19773 24716 24717 28
19774 24716 24718 28
19775 24716 24719 28
19776 24716 24720 28
19777 24721 24722 28
19778 24721 24723 28
19779 24721 24724 28
19780 24721 24725 28
19781 24726 24727 28
19782 24726 24728 28
19783 24726 24729 28
19784 24726 24730 28
19785 24731 24732 28
19786 24731 24733 28
19787 24731 24734 28
19788 24731 24735 28
19789 24736 24737 28
19790 24736 24738 28
19791 24736 24739 28
19792 24736 24740 28
19793 24741 24742 28
19794 24741 24743 28
19795 24741 24744 28
19796 24741 24745 28
19797 24746 24747 28
19798 24746 24748 28
19799 24746 24749 28
19800 24746 24750 28
19801 24751 24752 28
19802 24751 24753 28
19803 24751 24754 28
19804 24751 24755 28
19805 24756 24757 28
19806 24756 24758 28
19807 24756 24759 28
19808 24756 24760 28
19809 24761 24762 28
19810 24761 24763 28
19811 24761 24764 28
19812 24761 24765 28
19813 24766 24767 28
19814 24766 24768 28
19815 24766 24769 28
19816 24766 24770 28
19817 24771 24772 28
19818 24771 24773 28
19819 24771 24774 28
19820 24771 24775 28
19821 24776 24777 28
19822 24776 24778 28
19823 24776 24779 28
19824 24776 24780 28
19825 24781 24782 28
19826 24781 24783 28
19827 24781 24784 28
19828 24781 24785 28
19829 24786 24787 28
19830 24786 24788 28
19831 24786 24789 28
19832 24786 24790 28
19833 24791 24792 28
19834 24791 24793 28
19835 24791 24794 28
19836 24791 24795 28
19837 24796 24797 28
19838 24796 24798 28
19839 24796 24799 28
19840 24796 24800 28
19841 24801 24802 28
19842 24801 24803 28
19843 24801 24804 28
19844 24801 24805 28
19845 24806 24807 28
19846 24806 24808 28
19847 24806 24809 28
19848 24806 24810 28
19849 24811 24812 28
19850 24811 24813 28
19851 24811 24814 28
19852 24811 24815 28
19853 24816 24817 28
19854 24816 24818 28
19855 24816 24819 28
19856 24816 24820 28
19857 24821 24822 28
19858 24821 24823 28
19859 24821 24824 28
19860 24821 24825 28
19861 24826 24827 28
19862 24826 24828 28
19863 24826 24829 28
19864 24826 24830 28
19865 24831 24832 28
19866 24831 24833 28
19867 24831 24834 28
19868 24831 24835 28
19869 24836 24837 28
19870 24836 24838 28
19871 24836 24839 28
19872 24836 24840 28
19873 24841 24842 28
19874 24841 24843 28
19875 24841 24844 28
19876 24841 24845 28
19877 24846 24847 28
19878 24846 24848 28
19879 24846 24849 28
19880 24846 24850 28
19881 24851 24852 28
19882 24851 24853 28
19883 24851 24854 28
19884 24851 24855 28
19885 24856 24857 28
19886 24856 24858 28
19887 24856 24859 28
19888 24856 24860 28
19889 24861 24862 28
19890 24861 24863 28
19891 24861 24864 28
19892 24861 24865 28
19893 24866 24867 28
19894 24866 24868 28
19895 24866 24869 28
19896 24866 24870 28
19897 24871 24872 28
19898 24871 24873 28
19899 24871 24874 28
19900 24871 24875 28
19901 24876 24877 28
19902 24876 24878 28
19903 24876 24879 28
19904 24876 24880 28
19905 24881 24882 28
19906 24881 24883 28
19907 24881 24884 28
19908 24881 24885 28
19909 24886 24887 28
19910 24886 24888 28
19911 24886 24889 28
19912 24886 24890 28
19913 24891 24892 28
19914 24891 24893 28
19915 24891 24894 28
19916 24891 24895 28
19917 24896 24897 28
19918 24896 24898 28
19919 24896 24899 28
19920 24896 24900 28
19921 24901 24902 28
19922 24901 24903 28
19923 24901 24904 28
19924 24901 24905 28
19925 24906 24907 28
19926 24906 24908 28
19927 24906 24909 28
19928 24906 24910 28
19929 24911 24912 28
19930 24911 24913 28
19931 24911 24914 28
19932 24911 24915 28
19933 24916 24917 28
19934 24916 24918 28
19935 24916 24919 28
19936 24916 24920 28
19937 24921 24922 28
19938 24921 24923 28
19939 24921 24924 28
19940 24921 24925 28
19941 24926 24927 28
19942 24926 24928 28
19943 24926 24929 28
19944 24926 24930 28
19945 24931 24932 28
19946 24931 24933 28
19947 24931 24934 28
19948 24931 24935 28
19949 24936 24937 28
19950 24936 24938 28
19951 24936 24939 28
19952 24936 24940 28
19953 24941 24942 28
19954 24941 24943 28
19955 24941 24944 28
19956 24941 24945 28
19957 24946 24947 28
19958 24946 24948 28
19959 24946 24949 28
19960 24946 24950 28
19961 24951 24952 28
19962 24951 24953 28
19963 24951 24954 28
19964 24951 24955 28
19965 24956 24957 28
19966 24956 24958 28
19967 24956 24959 28
19968 24956 24960 28
19969 24961 24962 28
19970 24961 24963 28
19971 24961 24964 28
19972 24961 24965 28
19973 24966 24967 28
19974 24966 24968 28
19975 24966 24969 28
19976 24966 24970 28
19977 24971 24972 28
19978 24971 24973 28
19979 24971 24974 28
19980 24971 24975 28
19981 24976 24977 28
19982 24976 24978 28
19983 24976 24979 28
19984 24976 24980 28
19985 24981 24982 28
19986 24981 24983 28
19987 24981 24984 28
19988 24981 24985 28
19989 24986 24987 28
19990 24986 24988 28
19991 24986 24989 28
19992 24986 24990 28
19993 24991 24992 28
19994 24991 24993 28
19995 24991 24994 28
19996 24991 24995 28
19997 24996 24997 28
19998 24996 24998 28
19999 24996 24999 28
20000 24996 25000 28
20001 25001 25002 28
20002 25001 25003 28
20003 25001 25004 28
20004 25001 25005 28
20005 25006 25007 28
20006 25006 25008 28
20007 25006 25009 28
20008 25006 25010 28
20009 25011 25012 28
20010 25011 25013 28
20011 25011 25014 28
20012 25011 25015 28
20013 25016 25017 28
20014 25016 25018 28
20015 25016 25019 28
20016 25016 25020 28
20017 25021 25022 28
20018 25021 25023 28
20019 25021 25024 28
20020 25021 25025 28
20021 25026 25027 28
20022 25026 25028 28
20023 25026 25029 28
20024 25026 25030 28
20025 25031 25032 28
20026 25031 25033 28
20027 25031 25034 28
20028 25031 25035 28
20029 25036 25037 28
20030 25036 25038 28
20031 25036 25039 28
20032 25036 25040 28
20033 25041 25042 28
20034 25041 25043 28
20035 25041 25044 28
20036 25041 25045 28
20037 25046 25047 28
20038 25046 25048 28
20039 25046 25049 28
20040 25046 25050 28
20041 25051 25052 28
20042 25051 25053 28
20043 25051 25054 28
20044 25051 25055 28
20045 25056 25057 28
20046 25056 25058 28
20047 25056 25059 28
20048 25056 25060 28
20049 25061 25062 28
20050 25061 25063 28
20051 25061 25064 28
20052 25061 25065 28
20053 25066 25067 28
20054 25066 25068 28
20055 25066 25069 28
20056 25066 25070 28
20057 25071 25072 28
20058 25071 25073 28
20059 25071 25074 28
20060 25071 25075 28
20061 25076 25077 28
20062 25076 25078 28
20063 25076 25079 28
20064 25076 25080 28
20065 25081 25082 28
20066 25081 25083 28
20067 25081 25084 28
20068 25081 25085 28
20069 25086 25087 28
20070 25086 25088 28
20071 25086 25089 28
20072 25086 25090 28
20073 25091 25092 28
20074 25091 25093 28
20075 25091 25094 28
20076 25091 25095 28
20077 25096 25097 28
20078 25096 25098 28
20079 25096 25099 28
20080 25096 25100 28
20081 25101 25102 28
20082 25101 25103 28
20083 25101 25104 28
20084 25101 25105 28
20085 25106 25107 28
20086 25106 25108 28
20087 25106 25109 28
20088 25106 25110 28
20089 25111 25112 28
20090 25111 25113 28
20091 25111 25114 28
20092 25111 25115 28
20093 25116 25117 28
20094 25116 25118 28
20095 25116 25119 28
20096 25116 25120 28
20097 25121 25122 28
20098 25121 25123 28
20099 25121 25124 28
20100 25121 25125 28
20101 25126 25127 28
20102 25126 25128 28
20103 25126 25129 28
20104 25126 25130 28
20105 25131 25132 28
20106 25131 25133 28
20107 25131 25134 28
20108 25131 25135 28
20109 25136 25137 28
20110 25136 25138 28
20111 25136 25139 28
20112 25136 25140 28
20113 25141 25142 28
20114 25141 25143 28
20115 25141 25144 28
20116 25141 25145 28
20117 25146 25147 28
20118 25146 25148 28
20119 25146 25149 28
20120 25146 25150 28
20121 25151 25152 28
20122 25151 25153 28
20123 25151 25154 28
20124 25151 25155 28
20125 25156 25157 28
20126 25156 25158 28
20127 25156 25159 28
20128 25156 25160 28
20129 25161 25162 28
20130 25161 25163 28
20131 25161 25164 28
20132 25161 25165 28
20133 25166 25167 28
20134 25166 25168 28
20135 25166 25169 28
20136 25166 25170 28
20137 25171 25172 28
20138 25171 25173 28
20139 25171 25174 28
20140 25171 25175 28
20141 25176 25177 28
20142 25176 25178 28
20143 25176 25179 28
20144 25176 25180 28
20145 25181 25182 28
20146 25181 25183 28
20147 25181 25184 28
20148 25181 25185 28
20149 25186 25187 28
20150 25186 25188 28
20151 25186 25189 28
20152 25186 25190 28
20153 25191 25192 28
20154 25191 25193 28
20155 25191 25194 28
20156 25191 25195 28
20157 25196 25197 28
20158 25196 25198 28
20159 25196 25199 28
20160 25196 25200 28
20161 25201 25202 28
20162 25201 25203 28
20163 25201 25204 28
20164 25201 25205 28
20165 25206 25207 28
20166 25206 25208 28
20167 25206 25209 28
20168 25206 25210 28
20169 25211 25212 28
20170 25211 25213 28
20171 25211 25214 28
20172 25211 25215 28
20173 25216 25217 28
20174 25216 25218 28
20175 25216 25219 28
20176 25216 25220 28
20177 25221 25222 28
20178 25221 25223 28
20179 25221 25224 28
20180 25221 25225 28
20181 25226 25227 28
20182 25226 25228 28
20183 25226 25229 28
20184 25226 25230 28
20185 25231 25232 28
20186 25231 25233 28
20187 25231 25234 28
20188 25231 25235 28
20189 25236 25237 28
20190 25236 25238 28
20191 25236 25239 28
20192 25236 25240 28
20193 25241 25242 28
20194 25241 25243 28
20195 25241 25244 28
20196 25241 25245 28
20197 25246 25247 28
20198 25246 25248 28
20199 25246 25249 28
20200 25246 25250 28
20201 25251 25252 28
20202 25251 25253 28
20203 25251 25254 28
20204 25251 25255 28
20205 25256 25257 28
20206 25256 25258 28
20207 25256 25259 28
20208 25256 25260 28
20209 25261 25262 28
20210 25261 25263 28
20211 25261 25264 28
20212 25261 25265 28
20213 25266 25267 28
20214 25266 25268 28
20215 25266 25269 28
20216 25266 25270 28
20217 25271 25272 28
20218 25271 25273 28
20219 25271 25274 28
20220 25271 25275 28
20221 25276 25277 28
20222 25276 25278 28
20223 25276 25279 28
20224 25276 25280 28
20225 25281 25282 28
20226 25281 25283 28
20227 25281 25284 28
20228 25281 25285 28
20229 25286 25287 28
20230 25286 25288 28
20231 25286 25289 28
20232 25286 25290 28
20233 25291 25292 28
20234 25291 25293 28
20235 25291 25294 28
20236 25291 25295 28
20237 25296 25297 28
20238 25296 25298 28
20239 25296 25299 28
20240 25296 25300 28
20241 25301 25302 28
20242 25301 25303 28
20243 25301 25304 28
20244 25301 25305 28
20245 25306 25307 28
20246 25306 25308 28
20247 25306 25309 28
20248 25306 25310 28
20249 25311 25312 28
20250 25311 25313 28
20251 25311 25314 28
20252 25311 25315 28
20253 25316 25317 28
20254 25316 25318 28
20255 25316 25319 28
20256 25316 25320 28
20257 25321 25322 28
20258 25321 25323 28
20259 25321 25324 28
20260 25321 25325 28
20261 25326 25327 28
20262 25326 25328 28
20263 25326 25329 28
20264 25326 25330 28
20265 25331 25332 28
20266 25331 25333 28
20267 25331 25334 28
20268 25331 25335 28
20269 25336 25337 28
20270 25336 25338 28
20271 25336 25339 28
20272 25336 25340 28
20273 25341 25342 28
20274 25341 25343 28
20275 25341 25344 28
20276 25341 25345 28
20277 25346 25347 28
20278 25346 25348 28
20279 25346 25349 28
20280 25346 25350 28
20281 25351 25352 28
20282 25351 25353 28
20283 25351 25354 28
20284 25351 25355 28
20285 25356 25357 28
20286 25356 25358 28
20287 25356 25359 28
20288 25356 25360 28
20289 25361 25362 28
20290 25361 25363 28
20291 25361 25364 28
20292 25361 25365 28
20293 25366 25367 28
20294 25366 25368 28
20295 25366 25369 28
20296 25366 25370 28
20297 25371 25372 28
20298 25371 25373 28
20299 25371 25374 28
20300 25371 25375 28
20301 25376 25377 28
20302 25376 25378 28
20303 25376 25379 28
20304 25376 25380 28
20305 25381 25382 28
20306 25381 25383 28
20307 25381 25384 28
20308 25381 25385 28
20309 25386 25387 28
20310 25386 25388 28
20311 25386 25389 28
20312 25386 25390 28
20313 25391 25392 28
20314 25391 25393 28
20315 25391 25394 28
20316 25391 25395 28
20317 25396 25397 28
20318 25396 25398 28
20319 25396 25399 28
20320 25396 25400 28
20321 25401 25402 28
20322 25401 25403 28
20323 25401 25404 28
20324 25401 25405 28
20325 25406 25407 28
20326 25406 25408 28
20327 25406 25409 28
20328 25406 25410 28
20329 25411 25412 28
20330 25411 25413 28
20331 25411 25414 28
20332 25411 25415 28
20333 25416 25417 28
20334 25416 25418 28
20335 25416 25419 28
20336 25416 25420 28
20337 25421 25422 28
20338 25421 25423 28
20339 25421 25424 28
20340 25421 25425 28
20341 25426 25427 28
20342 25426 25428 28
20343 25426 25429 28
20344 25426 25430 28
20345 25431 25432 28
20346 25431 25433 28
20347 25431 25434 28
20348 25431 25435 28
20349 25436 25437 28
20350 25436 25438 28
20351 25436 25439 28
20352 25436 25440 28
20353 25441 25442 28
20354 25441 25443 28
20355 25441 25444 28
20356 25441 25445 28
20357 25446 25447 28
20358 25446 25448 28
20359 25446 25449 28
20360 25446 25450 28
20361 25451 25452 28
20362 25451 25453 28
20363 25451 25454 28
20364 25451 25455 28
20365 25456 25457 28
20366 25456 25458 28
20367 25456 25459 28
20368 25456 25460 28
20369 25461 25462 28
20370 25461 25463 28
20371 25461 25464 28
20372 25461 25465 28
20373 25466 25467 28
20374 25466 25468 28
20375 25466 25469 28
20376 25466 25470 28
20377 25471 25472 28
20378 25471 25473 28
20379 25471 25474 28
20380 25471 25475 28
20381 25476 25477 28
20382 25476 25478 28
20383 25476 25479 28
20384 25476 25480 28
20385 25481 25482 28
20386 25481 25483 28
20387 25481 25484 28
20388 25481 25485 28
20389 25486 25487 28
20390 25486 25488 28
20391 25486 25489 28
20392 25486 25490 28
20393 25491 25492 28
20394 25491 25493 28
20395 25491 25494 28
20396 25491 25495 28
20397 25496 25497 28
20398 25496 25498 28
20399 25496 25499 28
20400 25496 25500 28
20401 25501 25502 28
20402 25501 25503 28
20403 25501 25504 28
20404 25501 25505 28
20405 25506 25507 28
20406 25506 25508 28
20407 25506 25509 28
20408 25506 25510 28
20409 25511 25512 28
20410 25511 25513 28
20411 25511 25514 28
20412 25511 25515 28
20413 25516 25517 28
20414 25516 25518 28
20415 25516 25519 28
20416 25516 25520 28
20417 25521 25522 28
20418 25521 25523 28
20419 25521 25524 28
20420 25521 25525 28
20421 25526 25527 28
20422 25526 25528 28
20423 25526 25529 28
20424 25526 25530 28
20425 25531 25532 28
20426 25531 25533 28
20427 25531 25534 28
20428 25531 25535 28
20429 25536 25537 28
20430 25536 25538 28
20431 25536 25539 28
20432 25536 25540 28
20433 25541 25542 28
20434 25541 25543 28
20435 25541 25544 28
20436 25541 25545 28
20437 25546 25547 28
20438 25546 25548 28
20439 25546 25549 28
20440 25546 25550 28
20441 25551 25552 28
20442 25551 25553 28
20443 25551 25554 28
20444 25551 25555 28
20445 25556 25557 28
20446 25556 25558 28
20447 25556 25559 28
20448 25556 25560 28
20449 25561 25562 28
20450 25561 25563 28
20451 25561 25564 28
20452 25561 25565 28
20453 25566 25567 28
20454 25566 25568 28
20455 25566 25569 28
20456 25566 25570 28
20457 25571 25572 28
20458 25571 25573 28
20459 25571 25574 28
20460 25571 25575 28
20461 25576 25577 28
20462 25576 25578 28
20463 25576 25579 28
20464 25576 25580 28
20465 25581 25582 28
20466 25581 25583 28
20467 25581 25584 28
20468 25581 25585 28
20469 25586 25587 28
20470 25586 25588 28
20471 25586 25589 28
20472 25586 25590 28
20473 25591 25592 28
20474 25591 25593 28
20475 25591 25594 28
20476 25591 25595 28
20477 25596 25597 28
20478 25596 25598 28
20479 25596 25599 28
20480 25596 25600 28
20481 25601 25602 28
20482 25601 25603 28
20483 25601 25604 28
20484 25601 25605 28
20485 25606 25607 28
20486 25606 25608 28
20487 25606 25609 28
20488 25606 25610 28
20489 25611 25612 28
20490 25611 25613 28
20491 25611 25614 28
20492 25611 25615 28
20493 25616 25617 28
20494 25616 25618 28
20495 25616 25619 28
20496 25616 25620 28
20497 25621 25622 28
20498 25621 25623 28
20499 25621 25624 28
20500 25621 25625 28
20501 25626 25627 28
20502 25626 25628 28
20503 25626 25629 28
20504 25626 25630 28
20505 25631 25632 28
20506 25631 25633 28
20507 25631 25634 28
20508 25631 25635 28
20509 25636 25637 28
20510 25636 25638 28
20511 25636 25639 28
20512 25636 25640 28
20513 25641 25642 28
20514 25641 25643 28
20515 25641 25644 28
20516 25641 25645 28
20517 25646 25647 28
20518 25646 25648 28
20519 25646 25649 28
20520 25646 25650 28
20521 25651 25652 28
20522 25651 25653 28
20523 25651 25654 28
20524 25651 25655 28
20525 25656 25657 28
20526 25656 25658 28
20527 25656 25659 28
20528 25656 25660 28
20529 25661 25662 28
20530 25661 25663 28
20531 25661 25664 28
20532 25661 25665 28
20533 25666 25667 28
20534 25666 25668 28
20535 25666 25669 28
20536 25666 25670 28
20537 25671 25672 28
20538 25671 25673 28
20539 25671 25674 28
20540 25671 25675 28
20541 25676 25677 28
20542 25676 25678 28
20543 25676 25679 28
20544 25676 25680 28
20545 25681 25682 28
20546 25681 25683 28
20547 25681 25684 28
20548 25681 25685 28
20549 25686 25687 28
20550 25686 25688 28
20551 25686 25689 28
20552 25686 25690 28
20553 25691 25692 28
20554 25691 25693 28
20555 25691 25694 28
20556 25691 25695 28
20557 25696 25697 28
20558 25696 25698 28
20559 25696 25699 28
20560 25696 25700 28
20561 25701 25702 28
20562 25701 25703 28
20563 25701 25704 28
20564 25701 25705 28
20565 25706 25707 28
20566 25706 25708 28
20567 25706 25709 28
20568 25706 25710 28
20569 25711 25712 28
20570 25711 25713 28
20571 25711 25714 28
20572 25711 25715 28
20573 25716 25717 28
20574 25716 25718 28
20575 25716 25719 28
20576 25716 25720 28
20577 25721 25722 28
20578 25721 25723 28
20579 25721 25724 28
20580 25721 25725 28
20581 25726 25727 28
20582 25726 25728 28
20583 25726 25729 28
20584 25726 25730 28
20585 25731 25732 28
20586 25731 25733 28
20587 25731 25734 28
20588 25731 25735 28
20589 25736 25737 28
20590 25736 25738 28
20591 25736 25739 28
20592 25736 25740 28
20593 25741 25742 28
20594 25741 25743 28
20595 25741 25744 28
20596 25741 25745 28
20597 25746 25747 28
20598 25746 25748 28
20599 25746 25749 28
20600 25746 25750 28
20601 25751 25752 28
20602 25751 25753 28
20603 25751 25754 28
20604 25751 25755 28
20605 25756 25757 28
20606 25756 25758 28
20607 25756 25759 28
20608 25756 25760 28
20609 25761 25762 28
20610 25761 25763 28
20611 25761 25764 28
20612 25761 25765 28
20613 25766 25767 28
20614 25766 25768 28
20615 25766 25769 28
20616 25766 25770 28
20617 25771 25772 28
20618 25771 25773 28
20619 25771 25774 28
20620 25771 25775 28
20621 25776 25777 28
20622 25776 25778 28
20623 25776 25779 28
20624 25776 25780 28
20625 25781 25782 28
20626 25781 25783 28
20627 25781 25784 28
20628 25781 25785 28
20629 25786 25787 28
20630 25786 25788 28
20631 25786 25789 28
20632 25786 25790 28
20633 25791 25792 28
20634 25791 25793 28
20635 25791 25794 28
20636 25791 25795 28
20637 25796 25797 28
20638 25796 25798 28
20639 25796 25799 28
20640 25796 25800 28
20641 25801 25802 28
20642 25801 25803 28
20643 25801 25804 28
20644 25801 25805 28
20645 25806 25807 28
20646 25806 25808 28
20647 25806 25809 28
20648 25806 25810 28
20649 25811 25812 28
20650 25811 25813 28
20651 25811 25814 28
20652 25811 25815 28
20653 25816 25817 28
20654 25816 25818 28
20655 25816 25819 28
20656 25816 25820 28
20657 25821 25822 28
20658 25821 25823 28
20659 25821 25824 28
20660 25821 25825 28
20661 25826 25827 28
20662 25826 25828 28
20663 25826 25829 28
20664 25826 25830 28
20665 25831 25832 28
20666 25831 25833 28
20667 25831 25834 28
20668 25831 25835 28
20669 25836 25837 28
20670 25836 25838 28
20671 25836 25839 28
20672 25836 25840 28
20673 25841 25842 28
20674 25841 25843 28
20675 25841 25844 28
20676 25841 25845 28
20677 25846 25847 28
20678 25846 25848 28
20679 25846 25849 28
20680 25846 25850 28
20681 25851 25852 28
20682 25851 25853 28
20683 25851 25854 28
20684 25851 25855 28
20685 25856 25857 28
20686 25856 25858 28
20687 25856 25859 28
20688 25856 25860 28
20689 25861 25862 28
20690 25861 25863 28
20691 25861 25864 28
20692 25861 25865 28
20693 25866 25867 28
20694 25866 25868 28
20695 25866 25869 28
20696 25866 25870 28
20697 25871 25872 28
20698 25871 25873 28
20699 25871 25874 28
20700 25871 25875 28
20701 25876 25877 28
20702 25876 25878 28
20703 25876 25879 28
20704 25876 25880 28
20705 25881 25882 28
20706 25881 25883 28
20707 25881 25884 28
20708 25881 25885 28
20709 25886 25887 28
20710 25886 25888 28
20711 25886 25889 28
20712 25886 25890 28
20713 25891 25892 28
20714 25891 25893 28
20715 25891 25894 28
20716 25891 25895 28
20717 25896 25897 28
20718 25896 25898 28
20719 25896 25899 28
20720 25896 25900 28
20721 25901 25902 28
20722 25901 25903 28
20723 25901 25904 28
20724 25901 25905 28
20725 25906 25907 28
20726 25906 25908 28
20727 25906 25909 28
20728 25906 25910 28
20729 25911 25912 28
20730 25911 25913 28
20731 25911 25914 28
20732 25911 25915 28
20733 25916 25917 28
20734 25916 25918 28
20735 25916 25919 28
20736 25916 25920 28
20737 25921 25922 28
20738 25921 25923 28
20739 25921 25924 28
20740 25921 25925 28
20741 25926 25927 28
20742 25926 25928 28
20743 25926 25929 28
20744 25926 25930 28
20745 25931 25932 28
20746 25931 25933 28
20747 25931 25934 28
20748 25931 25935 28
20749 25936 25937 28
20750 25936 25938 28
20751 25936 25939 28
20752 25936 25940 28
20753 25941 25942 28
20754 25941 25943 28
20755 25941 25944 28
20756 25941 25945 28
20757 25946 25947 28
20758 25946 25948 28
20759 25946 25949 28
20760 25946 25950 28
20761 25951 25952 28
20762 25951 25953 28
20763 25951 25954 28
20764 25951 25955 28
20765 25956 25957 28
20766 25956 25958 28
20767 25956 25959 28
20768 25956 25960 28
20769 25961 25962 28
20770 25961 25963 28
20771 25961 25964 28
20772 25961 25965 28
20773 25966 25967 28
20774 25966 25968 28
20775 25966 25969 28
20776 25966 25970 28
20777 25971 25972 28
20778 25971 25973 28
20779 25971 25974 28
20780 25971 25975 28
20781 25976 25977 28
20782 25976 25978 28
20783 25976 25979 28
20784 25976 25980 28
20785 25981 25982 28
20786 25981 25983 28
20787 25981 25984 28
20788 25981 25985 28
20789 25986 25987 28
20790 25986 25988 28
20791 25986 25989 28
20792 25986 25990 28
20793 25991 25992 28
20794 25991 25993 28
20795 25991 25994 28
20796 25991 25995 28
20797 25996 25997 28
20798 25996 25998 28
20799 25996 25999 28
20800 25996 26000 28
20801 26001 26002 28
20802 26001 26003 28
20803 26001 26004 28
20804 26001 26005 28
20805 26006 26007 28
20806 26006 26008 28
20807 26006 26009 28
20808 26006 26010 28
20809 26011 26012 28
20810 26011 26013 28
20811 26011 26014 28
20812 26011 26015 28
20813 26016 26017 28
20814 26016 26018 28
20815 26016 26019 28
20816 26016 26020 28
20817 26021 26022 28
20818 26021 26023 28
20819 26021 26024 28
20820 26021 26025 28
20821 26026 26027 28
20822 26026 26028 28
20823 26026 26029 28
20824 26026 26030 28
20825 26031 26032 28
20826 26031 26033 28
20827 26031 26034 28
20828 26031 26035 28
20829 26036 26037 28
20830 26036 26038 28
20831 26036 26039 28
20832 26036 26040 28
20833 26041 26042 28
20834 26041 26043 28
20835 26041 26044 28
20836 26041 26045 28
20837 26046 26047 28
20838 26046 26048 28
20839 26046 26049 28
20840 26046 26050 28
20841 26051 26052 28
20842 26051 26053 28
20843 26051 26054 28
20844 26051 26055 28
20845 26056 26057 28
20846 26056 26058 28
20847 26056 26059 28
20848 26056 26060 28
20849 26061 26062 28
20850 26061 26063 28
20851 26061 26064 28
20852 26061 26065 28
20853 26066 26067 28
20854 26066 26068 28
20855 26066 26069 28
20856 26066 26070 28
20857 26071 26072 28
20858 26071 26073 28
20859 26071 26074 28
20860 26071 26075 28
20861 26076 26077 28
20862 26076 26078 28
20863 26076 26079 28
20864 26076 26080 28
20865 26081 26082 28
20866 26081 26083 28
20867 26081 26084 28
20868 26081 26085 28
20869 26086 26087 28
20870 26086 26088 28
20871 26086 26089 28
20872 26086 26090 28
20873 26091 26092 28
20874 26091 26093 28
20875 26091 26094 28
20876 26091 26095 28
20877 26096 26097 28
20878 26096 26098 28
20879 26096 26099 28
20880 26096 26100 28
20881 26101 26102 28
20882 26101 26103 28
20883 26101 26104 28
20884 26101 26105 28
20885 26106 26107 28
20886 26106 26108 28
20887 26106 26109 28
20888 26106 26110 28
20889 26111 26112 28
20890 26111 26113 28
20891 26111 26114 28
20892 26111 26115 28
20893 26116 26117 28
20894 26116 26118 28
20895 26116 26119 28
20896 26116 26120 28
20897 26121 26122 28
20898 26121 26123 28
20899 26121 26124 28
20900 26121 26125 28
20901 26126 26127 28
20902 26126 26128 28
20903 26126 26129 28
20904 26126 26130 28
20905 26131 26132 28
20906 26131 26133 28
20907 26131 26134 28
20908 26131 26135 28
20909 26136 26137 28
20910 26136 26138 28
20911 26136 26139 28
20912 26136 26140 28
20913 26141 26142 28
20914 26141 26143 28
20915 26141 26144 28
20916 26141 26145 28
20917 26146 26147 28
20918 26146 26148 28
20919 26146 26149 28
20920 26146 26150 28
20921 26151 26152 28
20922 26151 26153 28
20923 26151 26154 28
20924 26151 26155 28
20925 26156 26157 28
20926 26156 26158 28
20927 26156 26159 28
20928 26156 26160 28
20929 26161 26162 28
20930 26161 26163 28
20931 26161 26164 28
20932 26161 26165 28
20933 26166 26167 28
20934 26166 26168 28
20935 26166 26169 28
20936 26166 26170 28
20937 26171 26172 28
20938 26171 26173 28
20939 26171 26174 28
20940 26171 26175 28
20941 26176 26177 28
20942 26176 26178 28
20943 26176 26179 28
20944 26176 26180 28
20945 26181 26182 28
20946 26181 26183 28
20947 26181 26184 28
20948 26181 26185 28
20949 26186 26187 28
20950 26186 26188 28
20951 26186 26189 28
20952 26186 26190 28
20953 26191 26192 28
20954 26191 26193 28
20955 26191 26194 28
20956 26191 26195 28
20957 26196 26197 28
20958 26196 26198 28
20959 26196 26199 28
20960 26196 26200 28
20961 26201 26202 28
20962 26201 26203 28
20963 26201 26204 28
20964 26201 26205 28
20965 26206 26207 28
20966 26206 26208 28
20967 26206 26209 28
20968 26206 26210 28
20969 26211 26212 28
20970 26211 26213 28
20971 26211 26214 28
20972 26211 26215 28
20973 26216 26217 28
20974 26216 26218 28
20975 26216 26219 28
20976 26216 26220 28
20977 26221 26222 28
20978 26221 26223 28
20979 26221 26224 28
20980 26221 26225 28
20981 26226 26227 28
20982 26226 26228 28
20983 26226 26229 28
20984 26226 26230 28
20985 26231 26232 28
20986 26231 26233 28
20987 26231 26234 28
20988 26231 26235 28
20989 26236 26237 28
20990 26236 26238 28
20991 26236 26239 28
20992 26236 26240 28
20993 26241 26242 28
20994 26241 26243 28
20995 26241 26244 28
20996 26241 26245 28
20997 26246 26247 28
20998 26246 26248 28
20999 26246 26249 28
21000 26246 26250 28
21001 26251 26252 28
21002 26251 26253 28
21003 26251 26254 28
21004 26251 26255 28
21005 26256 26257 28
21006 26256 26258 28
21007 26256 26259 28
21008 26256 26260 28
21009 26261 26262 28
21010 26261 26263 28
21011 26261 26264 28
21012 26261 26265 28
21013 26266 26267 28
21014 26266 26268 28
21015 26266 26269 28
21016 26266 26270 28
21017 26271 26272 28
21018 26271 26273 28
21019 26271 26274 28
21020 26271 26275 28
21021 26276 26277 28
21022 26276 26278 28
21023 26276 26279 28
21024 26276 26280 28
21025 26281 26282 28
21026 26281 26283 28
21027 26281 26284 28
21028 26281 26285 28
21029 26286 26287 28
21030 26286 26288 28
21031 26286 26289 28
21032 26286 26290 28
21033 26291 26292 28
21034 26291 26293 28
21035 26291 26294 28
21036 26291 26295 28
21037 26296 26297 28
21038 26296 26298 28
21039 26296 26299 28
21040 26296 26300 28
21041 26301 26302 28
21042 26301 26303 28
21043 26301 26304 28
21044 26301 26305 28
21045 26306 26307 28
21046 26306 26308 28
21047 26306 26309 28
21048 26306 26310 28
21049 26311 26312 28
21050 26311 26313 28
21051 26311 26314 28
21052 26311 26315 28
21053 26316 26317 28
21054 26316 26318 28
21055 26316 26319 28
21056 26316 26320 28
21057 26321 26322 28
21058 26321 26323 28
21059 26321 26324 28
21060 26321 26325 28
21061 26326 26327 28
21062 26326 26328 28
21063 26326 26329 28
21064 26326 26330 28
21065 26331 26332 28
21066 26331 26333 28
21067 26331 26334 28
21068 26331 26335 28
21069 26336 26337 28
21070 26336 26338 28
21071 26336 26339 28
21072 26336 26340 28
21073 26341 26342 28
21074 26341 26343 28
21075 26341 26344 28
21076 26341 26345 28
21077 26346 26347 28
21078 26346 26348 28
21079 26346 26349 28
21080 26346 26350 28
21081 26351 26352 28
21082 26351 26353 28
21083 26351 26354 28
21084 26351 26355 28
21085 26356 26357 28
21086 26356 26358 28
21087 26356 26359 28
21088 26356 26360 28
21089 26361 26362 28
21090 26361 26363 28
21091 26361 26364 28
21092 26361 26365 28
21093 26366 26367 28
21094 26366 26368 28
21095 26366 26369 28
21096 26366 26370 28
21097 26371 26372 28
21098 26371 26373 28
21099 26371 26374 28
21100 26371 26375 28
21101 26376 26377 28
21102 26376 26378 28
21103 26376 26379 28
21104 26376 26380 28
21105 26381 26382 28
21106 26381 26383 28
21107 26381 26384 28
21108 26381 26385 28
21109 26386 26387 28
21110 26386 26388 28
21111 26386 26389 28
21112 26386 26390 28
21113 26391 26392 28
21114 26391 26393 28
21115 26391 26394 28
21116 26391 26395 28
21117 26396 26397 28
21118 26396 26398 28
21119 26396 26399 28
21120 26396 26400 28
21121 26401 26402 28
21122 26401 26403 28
21123 26401 26404 28
21124 26401 26405 28
21125 26406 26407 28
21126 26406 26408 28
21127 26406 26409 28
21128 26406 26410 28
21129 26411 26412 28
21130 26411 26413 28
21131 26411 26414 28
21132 26411 26415 28
21133 26416 26417 28
21134 26416 26418 28
21135 26416 26419 28
21136 26416 26420 28
21137 26421 26422 28
21138 26421 26423 28
21139 26421 26424 28
21140 26421 26425 28
21141 26426 26427 28
21142 26426 26428 28
21143 26426 26429 28
21144 26426 26430 28
21145 26431 26432 28
21146 26431 26433 28
21147 26431 26434 28
21148 26431 26435 28
21149 26436 26437 28
21150 26436 26438 28
21151 26436 26439 28
21152 26436 26440 28
21153 26441 26442 28
21154 26441 26443 28
21155 26441 26444 28
21156 26441 26445 28
21157 26446 26447 28
21158 26446 26448 28
21159 26446 26449 28
21160 26446 26450 28
21161 26451 26452 28
21162 26451 26453 28
21163 26451 26454 28
21164 26451 26455 28
21165 26456 26457 28
21166 26456 26458 28
21167 26456 26459 28
21168 26456 26460 28
21169 26461 26462 28
21170 26461 26463 28
21171 26461 26464 28
21172 26461 26465 28
21173 26466 26467 28
21174 26466 26468 28
21175 26466 26469 28
21176 26466 26470 28
21177 26471 26472 28
21178 26471 26473 28
21179 26471 26474 28
21180 26471 26475 28
21181 26476 26477 28
21182 26476 26478 28
21183 26476 26479 28
21184 26476 26480 28
21185 26481 26482 28
21186 26481 26483 28
21187 26481 26484 28
21188 26481 26485 28
21189 26486 26487 28
21190 26486 26488 28
21191 26486 26489 28
21192 26486 26490 28
21193 26491 26492 28
21194 26491 26493 28
21195 26491 26494 28
21196 26491 26495 28
21197 26496 26497 28
21198 26496 26498 28
21199 26496 26499 28
21200 26496 26500 28
21201 26501 26502 28
21202 26501 26503 28
21203 26501 26504 28
21204 26501 26505 28
21205 26506 26507 28
21206 26506 26508 28
21207 26506 26509 28
21208 26506 26510 28
21209 26511 26512 28
21210 26511 26513 28
21211 26511 26514 28
21212 26511 26515 28
21213 26516 26517 28
21214 26516 26518 28
21215 26516 26519 28
21216 26516 26520 28
21217 26521 26522 28
21218 26521 26523 28
21219 26521 26524 28
21220 26521 26525 28
21221 26526 26527 28
21222 26526 26528 28
21223 26526 26529 28
21224 26526 26530 28
21225 26531 26532 28
21226 26531 26533 28
21227 26531 26534 28
21228 26531 26535 28
21229 26536 26537 28
21230 26536 26538 28
21231 26536 26539 28
21232 26536 26540 28
21233 26541 26542 28
21234 26541 26543 28
21235 26541 26544 28
21236 26541 26545 28
21237 26546 26547 28
21238 26546 26548 28
21239 26546 26549 28
21240 26546 26550 28
21241 26551 26552 28
21242 26551 26553 28
21243 26551 26554 28
21244 26551 26555 28
21245 26556 26557 28
21246 26556 26558 28
21247 26556 26559 28
21248 26556 26560 28
21249 26561 26562 28
21250 26561 26563 28
21251 26561 26564 28
21252 26561 26565 28
21253 26566 26567 28
21254 26566 26568 28
21255 26566 26569 28
21256 26566 26570 28
21257 26571 26572 28
21258 26571 26573 28
21259 26571 26574 28
21260 26571 26575 28
21261 26576 26577 28
21262 26576 26578 28
21263 26576 26579 28
21264 26576 26580 28
21265 26581 26582 28
21266 26581 26583 28
21267 26581 26584 28
21268 26581 26585 28
21269 26586 26587 28
21270 26586 26588 28
21271 26586 26589 28
21272 26586 26590 28
21273 26591 26592 28
21274 26591 26593 28
21275 26591 26594 28
21276 26591 26595 28
21277 26596 26597 28
21278 26596 26598 28
21279 26596 26599 28
21280 26596 26600 28
21281 26601 26602 28
21282 26601 26603 28
21283 26601 26604 28
21284 26601 26605 28
21285 26606 26607 28
21286 26606 26608 28
21287 26606 26609 28
21288 26606 26610 28
21289 26611 26612 28
21290 26611 26613 28
21291 26611 26614 28
21292 26611 26615 28
21293 26616 26617 28
21294 26616 26618 28
21295 26616 26619 28
21296 26616 26620 28
21297 26621 26622 28
21298 26621 26623 28
21299 26621 26624 28
21300 26621 26625 28
21301 26626 26627 28
21302 26626 26628 28
21303 26626 26629 28
21304 26626 26630 28
21305 26631 26632 28
21306 26631 26633 28
21307 26631 26634 28
21308 26631 26635 28
21309 26636 26637 28
21310 26636 26638 28
21311 26636 26639 28
21312 26636 26640 28
21313 26641 26642 28
21314 26641 26643 28
21315 26641 26644 28
21316 26641 26645 28
21317 26646 26647 28
21318 26646 26648 28
21319 26646 26649 28
21320 26646 26650 28
21321 26651 26652 28
21322 26651 26653 28
21323 26651 26654 28
21324 26651 26655 28
21325 26656 26657 28
21326 26656 26658 28
21327 26656 26659 28
21328 26656 26660 28
21329 26661 26662 28
21330 26661 26663 28
21331 26661 26664 28
21332 26661 26665 28
21333 26666 26667 28
21334 26666 26668 28
21335 26666 26669 28
21336 26666 26670 28
21337 26671 26672 28
21338 26671 26673 28
21339 26671 26674 28
21340 26671 26675 28
21341 26676 26677 28
21342 26676 26678 28
21343 26676 26679 28
21344 26676 26680 28
21345 26681 26682 28
21346 26681 26683 28
21347 26681 26684 28
21348 26681 26685 28
21349 26686 26687 28
21350 26686 26688 28
21351 26686 26689 28
21352 26686 26690 28
21353 26691 26692 28
21354 26691 26693 28
21355 26691 26694 28
21356 26691 26695 28
21357 26696 26697 28
21358 26696 26698 28
21359 26696 26699 28
21360 26696 26700 28
21361 26701 26702 28
21362 26701 26703 28
21363 26701 26704 28
21364 26701 26705 28
21365 26706 26707 28
21366 26706 26708 28
21367 26706 26709 28
21368 26706 26710 28
21369 26711 26712 28
21370 26711 26713 28
21371 26711 26714 28
21372 26711 26715 28
21373 26716 26717 28
21374 26716 26718 28
21375 26716 26719 28
21376 26716 26720 28
21377 26721 26722 28
21378 26721 26723 28
21379 26721 26724 28
21380 26721 26725 28
21381 26726 26727 28
21382 26726 26728 28
21383 26726 26729 28
21384 26726 26730 28
21385 26731 26732 28
21386 26731 26733 28
21387 26731 26734 28
21388 26731 26735 28
21389 26736 26737 28
21390 26736 26738 28
21391 26736 26739 28
21392 26736 26740 28
21393 26741 26742 28
21394 26741 26743 28
21395 26741 26744 28
21396 26741 26745 28
21397 26746 26747 28
21398 26746 26748 28
21399 26746 26749 28
21400 26746 26750 28
21401 26751 26752 28
21402 26751 26753 28
21403 26751 26754 28
21404 26751 26755 28
21405 26756 26757 28
21406 26756 26758 28
21407 26756 26759 28
21408 26756 26760 28
21409 26761 26762 28
21410 26761 26763 28
21411 26761 26764 28
21412 26761 26765 28
21413 26766 26767 28
21414 26766 26768 28
21415 26766 26769 28
21416 26766 26770 28
21417 26771 26772 28
21418 26771 26773 28
21419 26771 26774 28
21420 26771 26775 28
21421 26776 26777 28
21422 26776 26778 28
21423 26776 26779 28
21424 26776 26780 28
21425 26781 26782 28
21426 26781 26783 28
21427 26781 26784 28
21428 26781 26785 28
21429 26786 26787 28
21430 26786 26788 28
21431 26786 26789 28
21432 26786 26790 28
21433 26791 26792 28
21434 26791 26793 28
21435 26791 26794 28
21436 26791 26795 28
21437 26796 26797 28
21438 26796 26798 28
21439 26796 26799 28
21440 26796 26800 28
21441 26801 26802 28
21442 26801 26803 28
21443 26801 26804 28
21444 26801 26805 28
21445 26806 26807 28
21446 26806 26808 28
21447 26806 26809 28
21448 26806 26810 28
21449 26811 26812 28
21450 26811 26813 28
21451 26811 26814 28
21452 26811 26815 28
21453 26816 26817 28
21454 26816 26818 28
21455 26816 26819 28
21456 26816 26820 28
21457 26821 26822 28
21458 26821 26823 28
21459 26821 26824 28
21460 26821 26825 28
21461 26826 26827 28
21462 26826 26828 28
21463 26826 26829 28
21464 26826 26830 28
21465 26831 26832 28
21466 26831 26833 28
21467 26831 26834 28
21468 26831 26835 28
21469 26836 26837 28
21470 26836 26838 28
21471 26836 26839 28
21472 26836 26840 28
21473 26841 26842 28
21474 26841 26843 28
21475 26841 26844 28
21476 26841 26845 28
21477 26846 26847 28
21478 26846 26848 28
21479 26846 26849 28
21480 26846 26850 28
21481 26851 26852 28
21482 26851 26853 28
21483 26851 26854 28
21484 26851 26855 28
21485 26856 26857 28
21486 26856 26858 28
21487 26856 26859 28
21488 26856 26860 28
21489 26861 26862 28
21490 26861 26863 28
21491 26861 26864 28
21492 26861 26865 28
21493 26866 26867 28
21494 26866 26868 28
21495 26866 26869 28
21496 26866 26870 28
21497 26871 26872 28
21498 26871 26873 28
21499 26871 26874 28
21500 26871 26875 28
21501 26876 26877 28
21502 26876 26878 28
21503 26876 26879 28
21504 26876 26880 28
21505 26881 26882 28
21506 26881 26883 28
21507 26881 26884 28
21508 26881 26885 28
21509 26886 26887 28
21510 26886 26888 28
21511 26886 26889 28
21512 26886 26890 28
21513 26891 26892 28
21514 26891 26893 28
21515 26891 26894 28
21516 26891 26895 28
21517 26896 26897 28
21518 26896 26898 28
21519 26896 26899 28
21520 26896 26900 28
21521 26901 26902 28
21522 26901 26903 28
21523 26901 26904 28
21524 26901 26905 28
21525 26906 26907 28
21526 26906 26908 28
21527 26906 26909 28
21528 26906 26910 28
21529 26911 26912 28
21530 26911 26913 28
21531 26911 26914 28
21532 26911 26915 28
21533 26916 26917 28
21534 26916 26918 28
21535 26916 26919 28
21536 26916 26920 28
21537 26921 26922 28
21538 26921 26923 28
21539 26921 26924 28
21540 26921 26925 28
21541 26926 26927 28
21542 26926 26928 28
21543 26926 26929 28
21544 26926 26930 28
21545 26931 26932 28
21546 26931 26933 28
21547 26931 26934 28
21548 26931 26935 28
21549 26936 26937 28
21550 26936 26938 28
21551 26936 26939 28
21552 26936 26940 28
21553 26941 26942 28
21554 26941 26943 28
21555 26941 26944 28
21556 26941 26945 28
21557 26946 26947 28
21558 26946 26948 28
21559 26946 26949 28
21560 26946 26950 28
21561 26951 26952 28
21562 26951 26953 28
21563 26951 26954 28
21564 26951 26955 28
21565 26956 26957 28
21566 26956 26958 28
21567 26956 26959 28
21568 26956 26960 28
21569 26961 26962 28
21570 26961 26963 28
21571 26961 26964 28
21572 26961 26965 28
21573 26966 26967 28
21574 26966 26968 28
21575 26966 26969 28
21576 26966 26970 28
21577 26971 26972 28
21578 26971 26973 28
21579 26971 26974 28
21580 26971 26975 28
21581 26976 26977 28
21582 26976 26978 28
21583 26976 26979 28
21584 26976 26980 28
21585 26981 26982 28
21586 26981 26983 28
21587 26981 26984 28
21588 26981 26985 28
21589 26986 26987 28
21590 26986 26988 28
21591 26986 26989 28
21592 26986 26990 28
21593 26991 26992 28
21594 26991 26993 28
21595 26991 26994 28
21596 26991 26995 28
21597 26996 26997 28
21598 26996 26998 28
21599 26996 26999 28
21600 26996 27000 28
21601 27001 27002 28
21602 27001 27003 28
21603 27001 27004 28
21604 27001 27005 28
21605 27006 27007 28
21606 27006 27008 28
21607 27006 27009 28
21608 27006 27010 28
21609 27011 27012 28
21610 27011 27013 28
21611 27011 27014 28
21612 27011 27015 28
21613 27016 27017 28
21614 27016 27018 28
21615 27016 27019 28
21616 27016 27020 28
21617 27021 27022 28
21618 27021 27023 28
21619 27021 27024 28
21620 27021 27025 28
21621 27026 27027 28
21622 27026 27028 28
21623 27026 27029 28
21624 27026 27030 28
21625 27031 27032 28
21626 27031 27033 28
21627 27031 27034 28
21628 27031 27035 28
21629 27036 27037 28
21630 27036 27038 28
21631 27036 27039 28
21632 27036 27040 28
21633 27041 27042 28
21634 27041 27043 28
21635 27041 27044 28
21636 27041 27045 28
21637 27046 27047 28
21638 27046 27048 28
21639 27046 27049 28
21640 27046 27050 28
21641 27051 27052 28
21642 27051 27053 28
21643 27051 27054 28
21644 27051 27055 28
21645 27056 27057 28
21646 27056 27058 28
21647 27056 27059 28
21648 27056 27060 28
21649 27061 27062 28
21650 27061 27063 28
21651 27061 27064 28
21652 27061 27065 28
21653 27066 27067 28
21654 27066 27068 28
21655 27066 27069 28
21656 27066 27070 28
21657 27071 27072 28
21658 27071 27073 28
21659 27071 27074 28
21660 27071 27075 28
21661 27076 27077 28
21662 27076 27078 28
21663 27076 27079 28
21664 27076 27080 28
21665 27081 27082 28
21666 27081 27083 28
21667 27081 27084 28
21668 27081 27085 28
21669 27086 27087 28
21670 27086 27088 28
21671 27086 27089 28
21672 27086 27090 28
21673 27091 27092 28
21674 27091 27093 28
21675 27091 27094 28
21676 27091 27095 28
21677 27096 27097 28
21678 27096 27098 28
21679 27096 27099 28
21680 27096 27100 28
21681 27101 27102 28
21682 27101 27103 28
21683 27101 27104 28
21684 27101 27105 28
21685 27106 27107 28
21686 27106 27108 28
21687 27106 27109 28
21688 27106 27110 28
21689 27111 27112 28
21690 27111 27113 28
21691 27111 27114 28
21692 27111 27115 28
21693 27116 27117 28
21694 27116 27118 28
21695 27116 27119 28
21696 27116 27120 28
21697 27121 27122 28
21698 27121 27123 28
21699 27121 27124 28
21700 27121 27125 28
21701 27126 27127 28
21702 27126 27128 28
21703 27126 27129 28
21704 27126 27130 28
21705 27131 27132 28
21706 27131 27133 28
21707 27131 27134 28
21708 27131 27135 28
21709 27136 27137 28
21710 27136 27138 28
21711 27136 27139 28
21712 27136 27140 28
21713 27141 27142 28
21714 27141 27143 28
21715 27141 27144 28
21716 27141 27145 28
21717 27146 27147 28
21718 27146 27148 28
21719 27146 27149 28
21720 27146 27150 28
21721 27151 27152 28
21722 27151 27153 28
21723 27151 27154 28
21724 27151 27155 28
21725 27156 27157 28
21726 27156 27158 28
21727 27156 27159 28
21728 27156 27160 28
21729 27161 27162 28
21730 27161 27163 28
21731 27161 27164 28
21732 27161 27165 28
21733 27166 27167 28
21734 27166 27168 28
21735 27166 27169 28
21736 27166 27170 28
21737 27171 27172 28
21738 27171 27173 28
21739 27171 27174 28
21740 27171 27175 28
21741 27176 27177 28
21742 27176 27178 28
21743 27176 27179 28
21744 27176 27180 28
21745 27181 27182 28
21746 27181 27183 28
21747 27181 27184 28
21748 27181 27185 28
21749 27186 27187 28
21750 27186 27188 28
21751 27186 27189 28
21752 27186 27190 28
21753 27191 27192 28
21754 27191 27193 28
21755 27191 27194 28
21756 27191 27195 28
21757 27196 27197 28
21758 27196 27198 28
21759 27196 27199 28
21760 27196 27200 28
21761 27201 27202 28
21762 27201 27203 28
21763 27201 27204 28
21764 27201 27205 28
21765 27206 27207 28
21766 27206 27208 28
21767 27206 27209 28
21768 27206 27210 28
21769 27211 27212 28
21770 27211 27213 28
21771 27211 27214 28
21772 27211 27215 28
21773 27216 27217 28
21774 27216 27218 28
21775 27216 27219 28
21776 27216 27220 28
21777 27221 27222 28
21778 27221 27223 28
21779 27221 27224 28
21780 27221 27225 28
21781 27226 27227 28
21782 27226 27228 28
21783 27226 27229 28
21784 27226 27230 28
21785 27231 27232 28
21786 27231 27233 28
21787 27231 27234 28
21788 27231 27235 28
21789 27236 27237 28
21790 27236 27238 28
21791 27236 27239 28
21792 27236 27240 28
21793 27241 27242 28
21794 27241 27243 28
21795 27241 27244 28
21796 27241 27245 28
21797 27246 27247 28
21798 27246 27248 28
21799 27246 27249 28
21800 27246 27250 28
21801 27251 27252 28
21802 27251 27253 28
21803 27251 27254 28
21804 27251 27255 28
21805 27256 27257 28
21806 27256 27258 28
21807 27256 27259 28
21808 27256 27260 28
21809 27261 27262 28
21810 27261 27263 28
21811 27261 27264 28
21812 27261 27265 28
21813 27266 27267 28
21814 27266 27268 28
21815 27266 27269 28
21816 27266 27270 28
21817 27271 27272 28
21818 27271 27273 28
21819 27271 27274 28
21820 27271 27275 28
21821 27276 27277 28
21822 27276 27278 28
21823 27276 27279 28
21824 27276 27280 28
21825 27281 27282 28
21826 27281 27283 28
21827 27281 27284 28
21828 27281 27285 28
21829 27286 27287 28
21830 27286 27288 28
21831 27286 27289 28
21832 27286 27290 28
21833 27291 27292 28
21834 27291 27293 28
21835 27291 27294 28
21836 27291 27295 28
21837 27296 27297 28
21838 27296 27298 28
21839 27296 27299 28
21840 27296 27300 28
21841 27301 27302 28
21842 27301 27303 28
21843 27301 27304 28
21844 27301 27305 28
21845 27306 27307 28
21846 27306 27308 28
21847 27306 27309 28
21848 27306 27310 28
21849 27311 27312 28
21850 27311 27313 28
21851 27311 27314 28
21852 27311 27315 28
21853 27316 27317 28
21854 27316 27318 28
21855 27316 27319 28
21856 27316 27320 28
21857 27321 27322 28
21858 27321 27323 28
21859 27321 27324 28
21860 27321 27325 28
21861 27326 27327 28
21862 27326 27328 28
21863 27326 27329 28
21864 27326 27330 28
21865 27331 27332 28
21866 27331 27333 28
21867 27331 27334 28
21868 27331 27335 28
21869 27336 27337 28
21870 27336 27338 28
21871 27336 27339 28
21872 27336 27340 28
21873 27341 27342 28
21874 27341 27343 28
21875 27341 27344 28
21876 27341 27345 28
21877 27346 27347 28
21878 27346 27348 28
21879 27346 27349 28
21880 27346 27350 28
21881 27351 27352 28
21882 27351 27353 28
21883 27351 27354 28
21884 27351 27355 28
21885 27356 27357 28
21886 27356 27358 28
21887 27356 27359 28
21888 27356 27360 28
21889 27361 27362 28
21890 27361 27363 28
21891 27361 27364 28
21892 27361 27365 28
21893 27366 27367 28
21894 27366 27368 28
21895 27366 27369 28
21896 27366 27370 28
21897 27371 27372 28
21898 27371 27373 28
21899 27371 27374 28
21900 27371 27375 28
21901 27376 27377 28
21902 27376 27378 28
21903 27376 27379 28
21904 27376 27380 28
21905 27381 27382 28
21906 27381 27383 28
21907 27381 27384 28
21908 27381 27385 28
21909 27386 27387 28
21910 27386 27388 28
21911 27386 27389 28
21912 27386 27390 28
21913 27391 27392 28
21914 27391 27393 28
21915 27391 27394 28
21916 27391 27395 28
21917 27396 27397 28
21918 27396 27398 28
21919 27396 27399 28
21920 27396 27400 28
21921 27401 27402 28
21922 27401 27403 28
21923 27401 27404 28
21924 27401 27405 28
21925 27406 27407 28
21926 27406 27408 28
21927 27406 27409 28
21928 27406 27410 28
21929 27411 27412 28
21930 27411 27413 28
21931 27411 27414 28
21932 27411 27415 28
21933 27416 27417 28
21934 27416 27418 28
21935 27416 27419 28
21936 27416 27420 28
21937 27421 27422 28
21938 27421 27423 28
21939 27421 27424 28
21940 27421 27425 28
21941 27426 27427 28
21942 27426 27428 28
21943 27426 27429 28
21944 27426 27430 28
21945 27431 27432 28
21946 27431 27433 28
21947 27431 27434 28
21948 27431 27435 28
21949 27436 27437 28
21950 27436 27438 28
21951 27436 27439 28
21952 27436 27440 28
21953 27441 27442 28
21954 27441 27443 28
21955 27441 27444 28
21956 27441 27445 28
21957 27446 27447 28
21958 27446 27448 28
21959 27446 27449 28
21960 27446 27450 28
21961 27451 27452 28
21962 27451 27453 28
21963 27451 27454 28
21964 27451 27455 28
21965 27456 27457 28
21966 27456 27458 28
21967 27456 27459 28
21968 27456 27460 28
21969 27461 27462 28
21970 27461 27463 28
21971 27461 27464 28
21972 27461 27465 28
21973 27466 27467 28
21974 27466 27468 28
21975 27466 27469 28
21976 27466 27470 28
21977 27471 27472 28
21978 27471 27473 28
21979 27471 27474 28
21980 27471 27475 28
21981 27476 27477 28
21982 27476 27478 28
21983 27476 27479 28
21984 27476 27480 28
21985 27481 27482 28
21986 27481 27483 28
21987 27481 27484 28
21988 27481 27485 28
21989 27486 27487 28
21990 27486 27488 28
21991 27486 27489 28
21992 27486 27490 28
21993 27491 27492 28
21994 27491 27493 28
21995 27491 27494 28
21996 27491 27495 28
21997 27496 27497 28
21998 27496 27498 28
21999 27496 27499 28
22000 27496 27500 28
22001 27501 27502 28
22002 27501 27503 28
22003 27501 27504 28
22004 27501 27505 28
22005 27506 27507 28
22006 27506 27508 28
22007 27506 27509 28
22008 27506 27510 28
22009 27511 27512 28
22010 27511 27513 28
22011 27511 27514 28
22012 27511 27515 28
22013 27516 27517 28
22014 27516 27518 28
22015 27516 27519 28
22016 27516 27520 28
22017 27521 27522 28
22018 27521 27523 28
22019 27521 27524 28
22020 27521 27525 28
22021 27526 27527 28
22022 27526 27528 28
22023 27526 27529 28
22024 27526 27530 28
22025 27531 27532 28
22026 27531 27533 28
22027 27531 27534 28
22028 27531 27535 28
22029 27536 27537 28
22030 27536 27538 28
22031 27536 27539 28
22032 27536 27540 28
22033 27541 27542 28
22034 27541 27543 28
22035 27541 27544 28
22036 27541 27545 28
22037 27546 27547 28
22038 27546 27548 28
22039 27546 27549 28
22040 27546 27550 28
22041 27551 27552 28
22042 27551 27553 28
22043 27551 27554 28
22044 27551 27555 28
22045 27556 27557 28
22046 27556 27558 28
22047 27556 27559 28
22048 27556 27560 28
22049 27561 27562 28
22050 27561 27563 28
22051 27561 27564 28
22052 27561 27565 28
22053 27566 27567 28
22054 27566 27568 28
22055 27566 27569 28
22056 27566 27570 28
22057 27571 27572 28
22058 27571 27573 28
22059 27571 27574 28
22060 27571 27575 28
22061 27576 27577 28
22062 27576 27578 28
22063 27576 27579 28
22064 27576 27580 28
22065 27581 27582 28
22066 27581 27583 28
22067 27581 27584 28
22068 27581 27585 28
22069 27586 27587 28
22070 27586 27588 28
22071 27586 27589 28
22072 27586 27590 28
22073 27591 27592 28
22074 27591 27593 28
22075 27591 27594 28
22076 27591 27595 28
22077 27596 27597 28
22078 27596 27598 28
22079 27596 27599 28
22080 27596 27600 28
22081 27601 27602 28
22082 27601 27603 28
22083 27601 27604 28
22084 27601 27605 28
22085 27606 27607 28
22086 27606 27608 28
22087 27606 27609 28
22088 27606 27610 28
22089 27611 27612 28
22090 27611 27613 28
22091 27611 27614 28
22092 27611 27615 28
22093 27616 27617 28
22094 27616 27618 28
22095 27616 27619 28
22096 27616 27620 28
22097 27621 27622 28
22098 27621 27623 28
22099 27621 27624 28
22100 27621 27625 28
22101 27626 27627 28
22102 27626 27628 28
22103 27626 27629 28
22104 27626 27630 28
22105 27631 27632 28
22106 27631 27633 28
22107 27631 27634 28
22108 27631 27635 28
22109 27636 27637 28
22110 27636 27638 28
22111 27636 27639 28
22112 27636 27640 28
22113 27641 27642 28
22114 27641 27643 28
22115 27641 27644 28
22116 27641 27645 28
22117 27646 27647 28
22118 27646 27648 28
22119 27646 27649 28
22120 27646 27650 28
22121 27651 27652 28
22122 27651 27653 28
22123 27651 27654 28
22124 27651 27655 28
22125 27656 27657 28
22126 27656 27658 28
22127 27656 27659 28
22128 27656 27660 28
22129 27661 27662 28
22130 27661 27663 28
22131 27661 27664 28
22132 27661 27665 28
22133 27666 27667 28
22134 27666 27668 28
22135 27666 27669 28
22136 27666 27670 28
22137 27671 27672 28
22138 27671 27673 28
22139 27671 27674 28
22140 27671 27675 28
22141 27676 27677 28
22142 27676 27678 28
22143 27676 27679 28
22144 27676 27680 28
22145 27681 27682 28
22146 27681 27683 28
22147 27681 27684 28
22148 27681 27685 28
22149 27686 27687 28
22150 27686 27688 28
22151 27686 27689 28
22152 27686 27690 28
22153 27691 27692 28
22154 27691 27693 28
22155 27691 27694 28
22156 27691 27695 28
22157 27696 27697 28
22158 27696 27698 28
22159 27696 27699 28
22160 27696 27700 28
22161 27701 27702 28
22162 27701 27703 28
22163 27701 27704 28
22164 27701 27705 28
22165 27706 27707 28
22166 27706 27708 28
22167 27706 27709 28
22168 27706 27710 28
22169 27711 27712 28
22170 27711 27713 28
22171 27711 27714 28
22172 27711 27715 28
22173 27716 27717 28
22174 27716 27718 28
22175 27716 27719 28
22176 27716 27720 28
22177 27721 27722 28
22178 27721 27723 28
22179 27721 27724 28
22180 27721 27725 28
22181 27726 27727 28
22182 27726 27728 28
22183 27726 27729 28
22184 27726 27730 28
22185 27731 27732 28
22186 27731 27733 28
22187 27731 27734 28
22188 27731 27735 28
22189 27736 27737 28
22190 27736 27738 28
22191 27736 27739 28
22192 27736 27740 28
22193 27741 27742 28
22194 27741 27743 28
22195 27741 27744 28
22196 27741 27745 28
22197 27746 27747 28
22198 27746 27748 28
22199 27746 27749 28
22200 27746 27750 28
22201 27751 27752 28
22202 27751 27753 28
22203 27751 27754 28
22204 27751 27755 28
22205 27756 27757 28
22206 27756 27758 28
22207 27756 27759 28
22208 27756 27760 28
22209 27761 27762 28
22210 27761 27763 28
22211 27761 27764 28
22212 27761 27765 28
22213 27766 27767 28
22214 27766 27768 28
22215 27766 27769 28
22216 27766 27770 28
22217 27771 27772 28
22218 27771 27773 28
22219 27771 27774 28
22220 27771 27775 28
22221 27776 27777 28
22222 27776 27778 28
22223 27776 27779 28
22224 27776 27780 28
22225 27781 27782 28
22226 27781 27783 28
22227 27781 27784 28
22228 27781 27785 28
22229 27786 27787 28
22230 27786 27788 28
22231 27786 27789 28
22232 27786 27790 28
22233 27791 27792 28
22234 27791 27793 28
22235 27791 27794 28
22236 27791 27795 28
22237 27796 27797 28
22238 27796 27798 28
22239 27796 27799 28
22240 27796 27800 28
22241 27801 27802 28
22242 27801 27803 28
22243 27801 27804 28
22244 27801 27805 28
22245 27806 27807 28
22246 27806 27808 28
22247 27806 27809 28
22248 27806 27810 28
22249 27811 27812 28
22250 27811 27813 28
22251 27811 27814 28
22252 27811 27815 28
22253 27816 27817 28
22254 27816 27818 28
22255 27816 27819 28
22256 27816 27820 28
22257 27821 27822 28
22258 27821 27823 28
22259 27821 27824 28
22260 27821 27825 28
22261 27826 27827 28
22262 27826 27828 28
22263 27826 27829 28
22264 27826 27830 28
22265 27831 27832 28
22266 27831 27833 28
22267 27831 27834 28
22268 27831 27835 28
22269 27836 27837 28
22270 27836 27838 28
22271 27836 27839 28
22272 27836 27840 28
22273 27841 27842 28
22274 27841 27843 28
22275 27841 27844 28
22276 27841 27845 28
22277 27846 27847 28
22278 27846 27848 28
22279 27846 27849 28
22280 27846 27850 28
22281 27851 27852 28
22282 27851 27853 28
22283 27851 27854 28
22284 27851 27855 28
22285 27856 27857 28
22286 27856 27858 28
22287 27856 27859 28
22288 27856 27860 28
22289 27861 27862 28
22290 27861 27863 28
22291 27861 27864 28
22292 27861 27865 28
22293 27866 27867 28
22294 27866 27868 28
22295 27866 27869 28
22296 27866 27870 28
22297 27871 27872 28
22298 27871 27873 28
22299 27871 27874 28
22300 27871 27875 28
22301 27876 27877 28
22302 27876 27878 28
22303 27876 27879 28
22304 27876 27880 28
22305 27881 27882 28
22306 27881 27883 28
22307 27881 27884 28
22308 27881 27885 28
22309 27886 27887 28
22310 27886 27888 28
22311 27886 27889 28
22312 27886 27890 28
22313 27891 27892 28
22314 27891 27893 28
22315 27891 27894 28
22316 27891 27895 28
22317 27896 27897 28
22318 27896 27898 28
22319 27896 27899 28
22320 27896 27900 28
22321 27901 27902 28
22322 27901 27903 28
22323 27901 27904 28
22324 27901 27905 28
22325 27906 27907 28
22326 27906 27908 28
22327 27906 27909 28
22328 27906 27910 28
22329 27911 27912 28
22330 27911 27913 28
22331 27911 27914 28
22332 27911 27915 28
22333 27916 27917 28
22334 27916 27918 28
22335 27916 27919 28
22336 27916 27920 28
22337 27921 27922 28
22338 27921 27923 28
22339 27921 27924 28
22340 27921 27925 28
22341 27926 27927 28
22342 27926 27928 28
22343 27926 27929 28
22344 27926 27930 28
22345 27931 27932 28
22346 27931 27933 28
22347 27931 27934 28
22348 27931 27935 28
22349 27936 27937 28
22350 27936 27938 28
22351 27936 27939 28
22352 27936 27940 28
22353 27941 27942 28
22354 27941 27943 28
22355 27941 27944 28
22356 27941 27945 28
22357 27946 27947 28
22358 27946 27948 28
22359 27946 27949 28
22360 27946 27950 28
22361 27951 27952 28
22362 27951 27953 28
22363 27951 27954 28
22364 27951 27955 28
22365 27956 27957 28
22366 27956 27958 28
22367 27956 27959 28
22368 27956 27960 28
22369 27961 27962 28
22370 27961 27963 28
22371 27961 27964 28
22372 27961 27965 28
22373 27966 27967 28
22374 27966 27968 28
22375 27966 27969 28
22376 27966 27970 28
22377 27971 27972 28
22378 27971 27973 28
22379 27971 27974 28
22380 27971 27975 28
22381 27976 27977 28
22382 27976 27978 28
22383 27976 27979 28
22384 27976 27980 28
22385 27981 27982 28
22386 27981 27983 28
22387 27981 27984 28
22388 27981 27985 28
22389 27986 27987 28
22390 27986 27988 28
22391 27986 27989 28
22392 27986 27990 28
22393 27991 27992 28
22394 27991 27993 28
22395 27991 27994 28
22396 27991 27995 28
22397 27996 27997 28
22398 27996 27998 28
22399 27996 27999 28
22400 27996 28000 28
22401 28001 28002 28
22402 28001 28003 28
22403 28001 28004 28
22404 28001 28005 28
22405 28006 28007 28
22406 28006 28008 28
22407 28006 28009 28
22408 28006 28010 28
22409 28011 28012 28
22410 28011 28013 28
22411 28011 28014 28
22412 28011 28015 28
22413 28016 28017 28
22414 28016 28018 28
22415 28016 28019 28
22416 28016 28020 28
22417 28021 28022 28
22418 28021 28023 28
22419 28021 28024 28
22420 28021 28025 28
22421 28026 28027 28
22422 28026 28028 28
22423 28026 28029 28
22424 28026 28030 28
22425 28031 28032 28
22426 28031 28033 28
22427 28031 28034 28
22428 28031 28035 28
22429 28036 28037 28
22430 28036 28038 28
22431 28036 28039 28
22432 28036 28040 28
22433 28041 28042 28
22434 28041 28043 28
22435 28041 28044 28
22436 28041 28045 28
22437 28046 28047 28
22438 28046 28048 28
22439 28046 28049 28
22440 28046 28050 28
22441 28051 28052 28
22442 28051 28053 28
22443 28051 28054 28
22444 28051 28055 28
22445 28056 28057 28
22446 28056 28058 28
22447 28056 28059 28
22448 28056 28060 28
22449 28061 28062 28
22450 28061 28063 28
22451 28061 28064 28
22452 28061 28065 28
22453 28066 28067 28
22454 28066 28068 28
22455 28066 28069 28
22456 28066 28070 28
22457 28071 28072 28
22458 28071 28073 28
22459 28071 28074 28
22460 28071 28075 28
22461 28076 28077 28
22462 28076 28078 28
22463 28076 28079 28
22464 28076 28080 28
22465 28081 28082 28
22466 28081 28083 28
22467 28081 28084 28
22468 28081 28085 28
22469 28086 28087 28
22470 28086 28088 28
22471 28086 28089 28
22472 28086 28090 28
22473 28091 28092 28
22474 28091 28093 28
22475 28091 28094 28
22476 28091 28095 28
22477 28096 28097 28
22478 28096 28098 28
22479 28096 28099 28
22480 28096 28100 28
22481 28101 28102 28
22482 28101 28103 28
22483 28101 28104 28
22484 28101 28105 28
22485 28106 28107 28
22486 28106 28108 28
22487 28106 28109 28
22488 28106 28110 28
22489 28111 28112 28
22490 28111 28113 28
22491 28111 28114 28
22492 28111 28115 28
22493 28116 28117 28
22494 28116 28118 28
22495 28116 28119 28
22496 28116 28120 28
22497 28121 28122 28
22498 28121 28123 28
22499 28121 28124 28
22500 28121 28125 28
22501 28126 28127 28
22502 28126 28128 28
22503 28126 28129 28
22504 28126 28130 28
22505 28131 28132 28
22506 28131 28133 28
22507 28131 28134 28
22508 28131 28135 28
22509 28136 28137 28
22510 28136 28138 28
22511 28136 28139 28
22512 28136 28140 28
22513 28141 28142 28
22514 28141 28143 28
22515 28141 28144 28
22516 28141 28145 28
22517 28146 28147 28
22518 28146 28148 28
22519 28146 28149 28
22520 28146 28150 28
22521 28151 28152 28
22522 28151 28153 28
22523 28151 28154 28
22524 28151 28155 28
22525 28156 28157 28
22526 28156 28158 28
22527 28156 28159 28
22528 28156 28160 28
22529 28161 28162 28
22530 28161 28163 28
22531 28161 28164 28
22532 28161 28165 28
22533 28166 28167 28
22534 28166 28168 28
22535 28166 28169 28
22536 28166 28170 28
22537 28171 28172 28
22538 28171 28173 28
22539 28171 28174 28
22540 28171 28175 28
22541 28176 28177 28
22542 28176 28178 28
22543 28176 28179 28
22544 28176 28180 28
22545 28181 28182 28
22546 28181 28183 28
22547 28181 28184 28
22548 28181 28185 28
22549 28186 28187 28
22550 28186 28188 28
22551 28186 28189 28
22552 28186 28190 28
22553 28191 28192 28
22554 28191 28193 28
22555 28191 28194 28
22556 28191 28195 28
22557 28196 28197 28
22558 28196 28198 28
22559 28196 28199 28
22560 28196 28200 28
22561 28201 28202 28
22562 28201 28203 28
22563 28201 28204 28
22564 28201 28205 28
22565 28206 28207 28
22566 28206 28208 28
22567 28206 28209 28
22568 28206 28210 28
22569 28211 28212 28
22570 28211 28213 28
22571 28211 28214 28
22572 28211 28215 28
22573 28216 28217 28
22574 28216 28218 28
22575 28216 28219 28
22576 28216 28220 28
22577 28221 28222 28
22578 28221 28223 28
22579 28221 28224 28
22580 28221 28225 28
22581 28226 28227 28
22582 28226 28228 28
22583 28226 28229 28
22584 28226 28230 28
22585 28231 28232 28
22586 28231 28233 28
22587 28231 28234 28
22588 28231 28235 28
22589 28236 28237 28
22590 28236 28238 28
22591 28236 28239 28
22592 28236 28240 28
22593 28241 28242 28
22594 28241 28243 28
22595 28241 28244 28
22596 28241 28245 28
22597 28246 28247 28
22598 28246 28248 28
22599 28246 28249 28
22600 28246 28250 28
22601 28251 28252 28
22602 28251 28253 28
22603 28251 28254 28
22604 28251 28255 28
22605 28256 28257 28
22606 28256 28258 28
22607 28256 28259 28
22608 28256 28260 28
22609 28261 28262 28
22610 28261 28263 28
22611 28261 28264 28
22612 28261 28265 28
22613 28266 28267 28
22614 28266 28268 28
22615 28266 28269 28
22616 28266 28270 28
22617 28271 28272 28
22618 28271 28273 28
22619 28271 28274 28
22620 28271 28275 28
22621 28276 28277 28
22622 28276 28278 28
22623 28276 28279 28
22624 28276 28280 28
22625 28281 28282 28
22626 28281 28283 28
22627 28281 28284 28
22628 28281 28285 28
22629 28286 28287 28
22630 28286 28288 28
22631 28286 28289 28
22632 28286 28290 28
22633 28291 28292 28
22634 28291 28293 28
22635 28291 28294 28
22636 28291 28295 28
22637 28296 28297 28
22638 28296 28298 28
22639 28296 28299 28
22640 28296 28300 28
22641 28301 28302 28
22642 28301 28303 28
22643 28301 28304 28
22644 28301 28305 28
22645 28306 28307 28
22646 28306 28308 28
22647 28306 28309 28
22648 28306 28310 28
22649 28311 28312 28
22650 28311 28313 28
22651 28311 28314 28
22652 28311 28315 28
22653 28316 28317 28
22654 28316 28318 28
22655 28316 28319 28
22656 28316 28320 28
22657 28321 28322 28
22658 28321 28323 28
22659 28321 28324 28
22660 28321 28325 28
22661 28326 28327 28
22662 28326 28328 28
22663 28326 28329 28
22664 28326 28330 28
22665 28331 28332 28
22666 28331 28333 28
22667 28331 28334 28
22668 28331 28335 28
22669 28336 28337 28
22670 28336 28338 28
22671 28336 28339 28
22672 28336 28340 28
22673 28341 28342 28
22674 28341 28343 28
22675 28341 28344 28
22676 28341 28345 28
22677 28346 28347 28
22678 28346 28348 28
22679 28346 28349 28
22680 28346 28350 28
22681 28351 28352 28
22682 28351 28353 28
22683 28351 28354 28
22684 28351 28355 28
22685 28356 28357 28
22686 28356 28358 28
22687 28356 28359 28
22688 28356 28360 28
22689 28361 28362 28
22690 28361 28363 28
22691 28361 28364 28
22692 28361 28365 28
22693 28366 28367 28
22694 28366 28368 28
22695 28366 28369 28
22696 28366 28370 28
22697 28371 28372 28
22698 28371 28373 28
22699 28371 28374 28
22700 28371 28375 28
22701 28376 28377 28
22702 28376 28378 28
22703 28376 28379 28
22704 28376 28380 28
22705 28381 28382 28
22706 28381 28383 28
22707 28381 28384 28
22708 28381 28385 28
22709 28386 28387 28
22710 28386 28388 28
22711 28386 28389 28
22712 28386 28390 28
22713 28391 28392 28
22714 28391 28393 28
22715 28391 28394 28
22716 28391 28395 28
22717 28396 28397 28
22718 28396 28398 28
22719 28396 28399 28
22720 28396 28400 28
22721 28401 28402 28
22722 28401 28403 28
22723 28401 28404 28
22724 28401 28405 28
22725 28406 28407 28
22726 28406 28408 28
22727 28406 28409 28
22728 28406 28410 28
22729 28411 28412 28
22730 28411 28413 28
22731 28411 28414 28
22732 28411 28415 28
22733 28416 28417 28
22734 28416 28418 28
22735 28416 28419 28
22736 28416 28420 28
22737 28421 28422 28
22738 28421 28423 28
22739 28421 28424 28
22740 28421 28425 28
22741 28426 28427 28
22742 28426 28428 28
22743 28426 28429 28
22744 28426 28430 28
22745 28431 28432 28
22746 28431 28433 28
22747 28431 28434 28
22748 28431 28435 28
22749 28436 28437 28
22750 28436 28438 28
22751 28436 28439 28
22752 28436 28440 28
22753 28441 28442 28
22754 28441 28443 28
22755 28441 28444 28
22756 28441 28445 28
22757 28446 28447 28
22758 28446 28448 28
22759 28446 28449 28
22760 28446 28450 28
22761 28451 28452 28
22762 28451 28453 28
22763 28451 28454 28
22764 28451 28455 28
22765 28456 28457 28
22766 28456 28458 28
22767 28456 28459 28
22768 28456 28460 28
22769 28461 28462 28
22770 28461 28463 28
22771 28461 28464 28
22772 28461 28465 28
22773 28466 28467 28
22774 28466 28468 28
22775 28466 28469 28
22776 28466 28470 28
22777 28471 28472 28
22778 28471 28473 28
22779 28471 28474 28
22780 28471 28475 28
22781 28476 28477 28
22782 28476 28478 28
22783 28476 28479 28
22784 28476 28480 28
22785 28481 28482 28
22786 28481 28483 28
22787 28481 28484 28
22788 28481 28485 28
22789 28486 28487 28
22790 28486 28488 28
22791 28486 28489 28
22792 28486 28490 28
22793 28491 28492 28
22794 28491 28493 28
22795 28491 28494 28
22796 28491 28495 28
22797 28496 28497 28
22798 28496 28498 28
22799 28496 28499 28
22800 28496 28500 28
22801 28501 28502 28
22802 28501 28503 28
22803 28501 28504 28
22804 28501 28505 28
22805 28506 28507 28
22806 28506 28508 28
22807 28506 28509 28
22808 28506 28510 28
22809 28511 28512 28
22810 28511 28513 28
22811 28511 28514 28
22812 28511 28515 28
22813 28516 28517 28
22814 28516 28518 28
22815 28516 28519 28
22816 28516 28520 28
22817 28521 28522 28
22818 28521 28523 28
22819 28521 28524 28
22820 28521 28525 28
22821 28526 28527 28
22822 28526 28528 28
22823 28526 28529 28
22824 28526 28530 28
22825 28531 28532 28
22826 28531 28533 28
22827 28531 28534 28
22828 28531 28535 28
22829 28536 28537 28
22830 28536 28538 28
22831 28536 28539 28
22832 28536 28540 28
22833 28541 28542 28
22834 28541 28543 28
22835 28541 28544 28
22836 28541 28545 28
22837 28546 28547 28
22838 28546 28548 28
22839 28546 28549 28
22840 28546 28550 28
22841 28551 28552 28
22842 28551 28553 28
22843 28551 28554 28
22844 28551 28555 28
22845 28556 28557 28
22846 28556 28558 28
22847 28556 28559 28
22848 28556 28560 28
22849 28561 28562 28
22850 28561 28563 28
22851 28561 28564 28
22852 28561 28565 28
22853 28566 28567 28
22854 28566 28568 28
22855 28566 28569 28
22856 28566 28570 28
22857 28571 28572 28
22858 28571 28573 28
22859 28571 28574 28
22860 28571 28575 28
22861 28576 28577 28
22862 28576 28578 28
22863 28576 28579 28
22864 28576 28580 28
22865 28581 28582 28
22866 28581 28583 28
22867 28581 28584 28
22868 28581 28585 28
22869 28586 28587 28
22870 28586 28588 28
22871 28586 28589 28
22872 28586 28590 28
22873 28591 28592 28
22874 28591 28593 28
22875 28591 28594 28
22876 28591 28595 28
22877 28596 28597 28
22878 28596 28598 28
22879 28596 28599 28
22880 28596 28600 28
22881 28601 28602 28
22882 28601 28603 28
22883 28601 28604 28
22884 28601 28605 28
22885 28606 28607 28
22886 28606 28608 28
22887 28606 28609 28
22888 28606 28610 28
22889 28611 28612 28
22890 28611 28613 28
22891 28611 28614 28
22892 28611 28615 28
22893 28616 28617 28
22894 28616 28618 28
22895 28616 28619 28
22896 28616 28620 28
22897 28621 28622 28
22898 28621 28623 28
22899 28621 28624 28
22900 28621 28625 28
22901 28626 28627 28
22902 28626 28628 28
22903 28626 28629 28
22904 28626 28630 28
22905 28631 28632 28
22906 28631 28633 28
22907 28631 28634 28
22908 28631 28635 28
22909 28636 28637 28
22910 28636 28638 28
22911 28636 28639 28
22912 28636 28640 28
22913 28641 28642 28
22914 28641 28643 28
22915 28641 28644 28
22916 28641 28645 28
22917 28646 28647 28
22918 28646 28648 28
22919 28646 28649 28
22920 28646 28650 28
22921 28651 28652 28
22922 28651 28653 28
22923 28651 28654 28
22924 28651 28655 28
22925 28656 28657 28
22926 28656 28658 28
22927 28656 28659 28
22928 28656 28660 28
22929 28661 28662 28
22930 28661 28663 28
22931 28661 28664 28
22932 28661 28665 28
22933 28666 28667 28
22934 28666 28668 28
22935 28666 28669 28
22936 28666 28670 28
22937 28671 28672 28
22938 28671 28673 28
22939 28671 28674 28
22940 28671 28675 28
22941 28676 28677 28
22942 28676 28678 28
22943 28676 28679 28
22944 28676 28680 28
22945 28681 28682 28
22946 28681 28683 28
22947 28681 28684 28
22948 28681 28685 28
22949 28686 28687 28
22950 28686 28688 28
22951 28686 28689 28
22952 28686 28690 28
22953 28691 28692 28
22954 28691 28693 28
22955 28691 28694 28
22956 28691 28695 28
22957 28696 28697 28
22958 28696 28698 28
22959 28696 28699 28
22960 28696 28700 28
22961 28701 28702 28
22962 28701 28703 28
22963 28701 28704 28
22964 28701 28705 28
22965 28706 28707 28
22966 28706 28708 28
22967 28706 28709 28
22968 28706 28710 28
22969 28711 28712 28
22970 28711 28713 28
22971 28711 28714 28
22972 28711 28715 28
22973 28716 28717 28
22974 28716 28718 28
22975 28716 28719 28
22976 28716 28720 28
22977 28721 28722 28
22978 28721 28723 28
22979 28721 28724 28
22980 28721 28725 28
22981 28726 28727 28
22982 28726 28728 28
22983 28726 28729 28
22984 28726 28730 28
22985 28731 28732 28
22986 28731 28733 28
22987 28731 28734 28
22988 28731 28735 28
22989 28736 28737 28
22990 28736 28738 28
22991 28736 28739 28
22992 28736 28740 28
22993 28741 28742 28
22994 28741 28743 28
22995 28741 28744 28
22996 28741 28745 28
22997 28746 28747 28
22998 28746 28748 28
22999 28746 28749 28
23000 28746 28750 28
23001 28751 28752 28
23002 28751 28753 28
23003 28751 28754 28
23004 28751 28755 28
23005 28756 28757 28
23006 28756 28758 28
23007 28756 28759 28
23008 28756 28760 28
23009 28761 28762 28
23010 28761 28763 28
23011 28761 28764 28
23012 28761 28765 28
23013 28766 28767 28
23014 28766 28768 28
23015 28766 28769 28
23016 28766 28770 28
23017 28771 28772 28
23018 28771 28773 28
23019 28771 28774 28
23020 28771 28775 28
23021 28776 28777 28
23022 28776 28778 28
23023 28776 28779 28
23024 28776 28780 28
23025 28781 28782 28
23026 28781 28783 28
23027 28781 28784 28
23028 28781 28785 28
23029 28786 28787 28
23030 28786 28788 28
23031 28786 28789 28
23032 28786 28790 28
23033 28791 28792 28
23034 28791 28793 28
23035 28791 28794 28
23036 28791 28795 28
23037 28796 28797 28
23038 28796 28798 28
23039 28796 28799 28
23040 28796 28800 28
23041 28801 28802 28
23042 28801 28803 28
23043 28801 28804 28
23044 28801 28805 28
23045 28806 28807 28
23046 28806 28808 28
23047 28806 28809 28
23048 28806 28810 28
23049 28811 28812 28
23050 28811 28813 28
23051 28811 28814 28
23052 28811 28815 28
23053 28816 28817 28
23054 28816 28818 28
23055 28816 28819 28
23056 28816 28820 28
23057 28821 28822 28
23058 28821 28823 28
23059 28821 28824 28
23060 28821 28825 28
23061 28826 28827 28
23062 28826 28828 28
23063 28826 28829 28
23064 28826 28830 28
23065 28831 28832 28
23066 28831 28833 28
23067 28831 28834 28
23068 28831 28835 28
23069 28836 28837 28
23070 28836 28838 28
23071 28836 28839 28
23072 28836 28840 28
23073 28841 28842 28
23074 28841 28843 28
23075 28841 28844 28
23076 28841 28845 28
23077 28846 28847 28
23078 28846 28848 28
23079 28846 28849 28
23080 28846 28850 28
23081 28851 28852 28
23082 28851 28853 28
23083 28851 28854 28
23084 28851 28855 28
23085 28856 28857 28
23086 28856 28858 28
23087 28856 28859 28
23088 28856 28860 28
23089 28861 28862 28
23090 28861 28863 28
23091 28861 28864 28
23092 28861 28865 28
23093 28866 28867 28
23094 28866 28868 28
23095 28866 28869 28
23096 28866 28870 28
23097 28871 28872 28
23098 28871 28873 28
23099 28871 28874 28
23100 28871 28875 28
23101 28876 28877 28
23102 28876 28878 28
23103 28876 28879 28
23104 28876 28880 28
23105 28881 28882 28
23106 28881 28883 28
23107 28881 28884 28
23108 28881 28885 28
23109 28886 28887 28
23110 28886 28888 28
23111 28886 28889 28
23112 28886 28890 28
23113 28891 28892 28
23114 28891 28893 28
23115 28891 28894 28
23116 28891 28895 28
23117 28896 28897 28
23118 28896 28898 28
23119 28896 28899 28
23120 28896 28900 28
23121 28901 28902 28
23122 28901 28903 28
23123 28901 28904 28
23124 28901 28905 28
23125 28906 28907 28
23126 28906 28908 28
23127 28906 28909 28
23128 28906 28910 28
23129 28911 28912 28
23130 28911 28913 28
23131 28911 28914 28
23132 28911 28915 28
23133 28916 28917 28
23134 28916 28918 28
23135 28916 28919 28
23136 28916 28920 28
23137 28921 28922 28
23138 28921 28923 28
23139 28921 28924 28
23140 28921 28925 28
23141 28926 28927 28
23142 28926 28928 28
23143 28926 28929 28
23144 28926 28930 28
23145 28931 28932 28
23146 28931 28933 28
23147 28931 28934 28
23148 28931 28935 28
23149 28936 28937 28
23150 28936 28938 28
23151 28936 28939 28
23152 28936 28940 28
23153 28941 28942 28
23154 28941 28943 28
23155 28941 28944 28
23156 28941 28945 28
23157 28946 28947 28
23158 28946 28948 28
23159 28946 28949 28
23160 28946 28950 28
23161 28951 28952 28
23162 28951 28953 28
23163 28951 28954 28
23164 28951 28955 28
23165 28956 28957 28
23166 28956 28958 28
23167 28956 28959 28
23168 28956 28960 28
23169 28961 28962 28
23170 28961 28963 28
23171 28961 28964 28
23172 28961 28965 28
23173 28966 28967 28
23174 28966 28968 28
23175 28966 28969 28
23176 28966 28970 28
23177 28971 28972 28
23178 28971 28973 28
23179 28971 28974 28
23180 28971 28975 28
23181 28976 28977 28
23182 28976 28978 28
23183 28976 28979 28
23184 28976 28980 28
23185 28981 28982 28
23186 28981 28983 28
23187 28981 28984 28
23188 28981 28985 28
23189 28986 28987 28
23190 28986 28988 28
23191 28986 28989 28
23192 28986 28990 28
23193 28991 28992 28
23194 28991 28993 28
23195 28991 28994 28
23196 28991 28995 28
23197 28996 28997 28
23198 28996 28998 28
23199 28996 28999 28
23200 28996 29000 28
23201 29001 29002 28
23202 29001 29003 28
23203 29001 29004 28
23204 29001 29005 28
23205 29006 29007 28
23206 29006 29008 28
23207 29006 29009 28
23208 29006 29010 28
23209 29011 29012 28
23210 29011 29013 28
23211 29011 29014 28
23212 29011 29015 28
23213 29016 29017 28
23214 29016 29018 28
23215 29016 29019 28
23216 29016 29020 28
23217 29021 29022 28
23218 29021 29023 28
23219 29021 29024 28
23220 29021 29025 28
23221 29026 29027 28
23222 29026 29028 28
23223 29026 29029 28
23224 29026 29030 28
23225 29031 29032 28
23226 29031 29033 28
23227 29031 29034 28
23228 29031 29035 28
23229 29036 29037 28
23230 29036 29038 28
23231 29036 29039 28
23232 29036 29040 28
23233 29041 29042 28
23234 29041 29043 28
23235 29041 29044 28
23236 29041 29045 28
23237 29046 29047 28
23238 29046 29048 28
23239 29046 29049 28
23240 29046 29050 28
23241 29051 29052 28
23242 29051 29053 28
23243 29051 29054 28
23244 29051 29055 28
23245 29056 29057 28
23246 29056 29058 28
23247 29056 29059 28
23248 29056 29060 28
23249 29061 29062 28
23250 29061 29063 28
23251 29061 29064 28
23252 29061 29065 28
23253 29066 29067 28
23254 29066 29068 28
23255 29066 29069 28
23256 29066 29070 28
23257 29071 29072 28
23258 29071 29073 28
23259 29071 29074 28
23260 29071 29075 28
23261 29076 29077 28
23262 29076 29078 28
23263 29076 29079 28
23264 29076 29080 28
23265 29081 29082 28
23266 29081 29083 28
23267 29081 29084 28
23268 29081 29085 28
23269 29086 29087 28
23270 29086 29088 28
23271 29086 29089 28
23272 29086 29090 28
23273 29091 29092 28
23274 29091 29093 28
23275 29091 29094 28
23276 29091 29095 28
23277 29096 29097 28
23278 29096 29098 28
23279 29096 29099 28
23280 29096 29100 28
23281 29101 29102 28
23282 29101 29103 28
23283 29101 29104 28
23284 29101 29105 28
23285 29106 29107 28
23286 29106 29108 28
23287 29106 29109 28
23288 29106 29110 28
23289 29111 29112 28
23290 29111 29113 28
23291 29111 29114 28
23292 29111 29115 28
23293 29116 29117 28
23294 29116 29118 28
23295 29116 29119 28
23296 29116 29120 28
23297 29121 29122 28
23298 29121 29123 28
23299 29121 29124 28
23300 29121 29125 28
23301 29126 29127 28
23302 29126 29128 28
23303 29126 29129 28
23304 29126 29130 28
23305 29131 29132 28
23306 29131 29133 28
23307 29131 29134 28
23308 29131 29135 28
23309 29136 29137 28
23310 29136 29138 28
23311 29136 29139 28
23312 29136 29140 28
23313 29141 29142 28
23314 29141 29143 28
23315 29141 29144 28
23316 29141 29145 28
23317 29146 29147 28
23318 29146 29148 28
23319 29146 29149 28
23320 29146 29150 28
23321 29151 29152 28
23322 29151 29153 28
23323 29151 29154 28
23324 29151 29155 28
23325 29156 29157 28
23326 29156 29158 28
23327 29156 29159 28
23328 29156 29160 28
23329 29161 29162 28
23330 29161 29163 28
23331 29161 29164 28
23332 29161 29165 28
23333 29166 29167 28
23334 29166 29168 28
23335 29166 29169 28
23336 29166 29170 28
23337 29171 29172 28
23338 29171 29173 28
23339 29171 29174 28
23340 29171 29175 28
23341 29176 29177 28
23342 29176 29178 28
23343 29176 29179 28
23344 29176 29180 28
23345 29181 29182 28
23346 29181 29183 28
23347 29181 29184 28
23348 29181 29185 28
23349 29186 29187 28
23350 29186 29188 28
23351 29186 29189 28
23352 29186 29190 28
23353 29191 29192 28
23354 29191 29193 28
23355 29191 29194 28
23356 29191 29195 28
23357 29196 29197 28
23358 29196 29198 28
23359 29196 29199 28
23360 29196 29200 28
23361 29201 29202 28
23362 29201 29203 28
23363 29201 29204 28
23364 29201 29205 28
23365 29206 29207 28
23366 29206 29208 28
23367 29206 29209 28
23368 29206 29210 28
23369 29211 29212 28
23370 29211 29213 28
23371 29211 29214 28
23372 29211 29215 28
23373 29216 29217 28
23374 29216 29218 28
23375 29216 29219 28
23376 29216 29220 28
23377 29221 29222 28
23378 29221 29223 28
23379 29221 29224 28
23380 29221 29225 28
23381 29226 29227 28
23382 29226 29228 28
23383 29226 29229 28
23384 29226 29230 28
23385 29231 29232 28
23386 29231 29233 28
23387 29231 29234 28
23388 29231 29235 28
23389 29236 29237 28
23390 29236 29238 28
23391 29236 29239 28
23392 29236 29240 28
23393 29241 29242 28
23394 29241 29243 28
23395 29241 29244 28
23396 29241 29245 28
23397 29246 29247 28
23398 29246 29248 28
23399 29246 29249 28
23400 29246 29250 28
23401 29251 29252 28
23402 29251 29253 28
23403 29251 29254 28
23404 29251 29255 28
23405 29256 29257 28
23406 29256 29258 28
23407 29256 29259 28
23408 29256 29260 28
23409 29261 29262 28
23410 29261 29263 28
23411 29261 29264 28
23412 29261 29265 28
23413 29266 29267 28
23414 29266 29268 28
23415 29266 29269 28
23416 29266 29270 28
23417 29271 29272 28
23418 29271 29273 28
23419 29271 29274 28
23420 29271 29275 28
23421 29276 29277 28
23422 29276 29278 28
23423 29276 29279 28
23424 29276 29280 28
23425 29281 29282 28
23426 29281 29283 28
23427 29281 29284 28
23428 29281 29285 28
23429 29286 29287 28
23430 29286 29288 28
23431 29286 29289 28
23432 29286 29290 28
23433 29291 29292 28
23434 29291 29293 28
23435 29291 29294 28
23436 29291 29295 28
23437 29296 29297 28
23438 29296 29298 28
23439 29296 29299 28
23440 29296 29300 28
23441 29301 29302 28
23442 29301 29303 28
23443 29301 29304 28
23444 29301 29305 28
23445 29306 29307 28
23446 29306 29308 28
23447 29306 29309 28
23448 29306 29310 28
23449 29311 29312 28
23450 29311 29313 28
23451 29311 29314 28
23452 29311 29315 28
23453 29316 29317 28
23454 29316 29318 28
23455 29316 29319 28
23456 29316 29320 28
23457 29321 29322 28
23458 29321 29323 28
23459 29321 29324 28
23460 29321 29325 28
23461 29326 29327 28
23462 29326 29328 28
23463 29326 29329 28
23464 29326 29330 28
23465 29331 29332 28
23466 29331 29333 28
23467 29331 29334 28
23468 29331 29335 28
23469 29336 29337 28
23470 29336 29338 28
23471 29336 29339 28
23472 29336 29340 28
23473 29341 29342 28
23474 29341 29343 28
23475 29341 29344 28
23476 29341 29345 28
23477 29346 29347 28
23478 29346 29348 28
23479 29346 29349 28
23480 29346 29350 28
23481 29351 29352 28
23482 29351 29353 28
23483 29351 29354 28
23484 29351 29355 28
23485 29356 29357 28
23486 29356 29358 28
23487 29356 29359 28
23488 29356 29360 28
23489 29361 29362 28
23490 29361 29363 28
23491 29361 29364 28
23492 29361 29365 28
23493 29366 29367 28
23494 29366 29368 28
23495 29366 29369 28
23496 29366 29370 28
23497 29371 29372 28
23498 29371 29373 28
23499 29371 29374 28
23500 29371 29375 28
23501 29376 29377 28
23502 29376 29378 28
23503 29376 29379 28
23504 29376 29380 28
23505 29381 29382 28
23506 29381 29383 28
23507 29381 29384 28
23508 29381 29385 28
23509 29386 29387 28
23510 29386 29388 28
23511 29386 29389 28
23512 29386 29390 28
23513 29391 29392 28
23514 29391 29393 28
23515 29391 29394 28
23516 29391 29395 28
23517 29396 29397 28
23518 29396 29398 28
23519 29396 29399 28
23520 29396 29400 28
23521 29401 29402 28
23522 29401 29403 28
23523 29401 29404 28
23524 29401 29405 28
23525 29406 29407 28
23526 29406 29408 28
23527 29406 29409 28
23528 29406 29410 28
23529 29411 29412 28
23530 29411 29413 28
23531 29411 29414 28
23532 29411 29415 28
23533 29416 29417 28
23534 29416 29418 28
23535 29416 29419 28
23536 29416 29420 28
23537 29421 29422 28
23538 29421 29423 28
23539 29421 29424 28
23540 29421 29425 28
23541 29426 29427 28
23542 29426 29428 28
23543 29426 29429 28
23544 29426 29430 28
23545 29431 29432 28
23546 29431 29433 28
23547 29431 29434 28
23548 29431 29435 28
23549 29436 29437 28
23550 29436 29438 28
23551 29436 29439 28
23552 29436 29440 28
23553 29441 29442 28
23554 29441 29443 28
23555 29441 29444 28
23556 29441 29445 28
23557 29446 29447 28
23558 29446 29448 28
23559 29446 29449 28
23560 29446 29450 28
23561 29451 29452 28
23562 29451 29453 28
23563 29451 29454 28
23564 29451 29455 28
23565 29456 29457 28
23566 29456 29458 28
23567 29456 29459 28
23568 29456 29460 28
23569 29461 29462 28
23570 29461 29463 28
23571 29461 29464 28
23572 29461 29465 28
23573 29466 29467 28
23574 29466 29468 28
23575 29466 29469 28
23576 29466 29470 28
23577 29471 29472 28
23578 29471 29473 28
23579 29471 29474 28
23580 29471 29475 28
23581 29476 29477 28
23582 29476 29478 28
23583 29476 29479 28
23584 29476 29480 28
23585 29481 29482 28
23586 29481 29483 28
23587 29481 29484 28
23588 29481 29485 28
23589 29486 29487 28
23590 29486 29488 28
23591 29486 29489 28
23592 29486 29490 28
23593 29491 29492 28
23594 29491 29493 28
23595 29491 29494 28
23596 29491 29495 28
23597 29496 29497 28
23598 29496 29498 28
23599 29496 29499 28
23600 29496 29500 28
23601 29501 29502 28
23602 29501 29503 28
23603 29501 29504 28
23604 29501 29505 28
23605 29506 29507 28
23606 29506 29508 28
23607 29506 29509 28
23608 29506 29510 28
23609 29511 29512 28
23610 29511 29513 28
23611 29511 29514 28
23612 29511 29515 28
23613 29516 29517 28
23614 29516 29518 28
23615 29516 29519 28
23616 29516 29520 28
23617 29521 29522 28
23618 29521 29523 28
23619 29521 29524 28
23620 29521 29525 28
23621 29526 29527 28
23622 29526 29528 28
23623 29526 29529 28
23624 29526 29530 28
23625 29531 29532 28
23626 29531 29533 28
23627 29531 29534 28
23628 29531 29535 28
23629 29536 29537 28
23630 29536 29538 28
23631 29536 29539 28
23632 29536 29540 28
23633 29541 29542 28
23634 29541 29543 28
23635 29541 29544 28
23636 29541 29545 28
23637 29546 29547 28
23638 29546 29548 28
23639 29546 29549 28
23640 29546 29550 28
23641 29551 29552 28
23642 29551 29553 28
23643 29551 29554 28
23644 29551 29555 28
23645 29556 29557 28
23646 29556 29558 28
23647 29556 29559 28
23648 29556 29560 28
23649 29561 29562 28
23650 29561 29563 28
23651 29561 29564 28
23652 29561 29565 28
23653 29566 29567 28
23654 29566 29568 28
23655 29566 29569 28
23656 29566 29570 28
23657 29571 29572 28
23658 29571 29573 28
23659 29571 29574 28
23660 29571 29575 28
23661 29576 29577 28
23662 29576 29578 28
23663 29576 29579 28
23664 29576 29580 28
23665 29581 29582 28
23666 29581 29583 28
23667 29581 29584 28
23668 29581 29585 28
23669 29586 29587 28
23670 29586 29588 28
23671 29586 29589 28
23672 29586 29590 28
23673 29591 29592 28
23674 29591 29593 28
23675 29591 29594 28
23676 29591 29595 28
23677 29596 29597 28
23678 29596 29598 28
23679 29596 29599 28
23680 29596 29600 28
23681 29601 29602 28
23682 29601 29603 28
23683 29601 29604 28
23684 29601 29605 28
23685 29606 29607 28
23686 29606 29608 28
23687 29606 29609 28
23688 29606 29610 28
23689 29611 29612 28
23690 29611 29613 28
23691 29611 29614 28
23692 29611 29615 28
23693 29616 29617 28
23694 29616 29618 28
23695 29616 29619 28
23696 29616 29620 28
23697 29621 29622 28
23698 29621 29623 28
23699 29621 29624 28
23700 29621 29625 28
23701 29626 29627 28
23702 29626 29628 28
23703 29626 29629 28
23704 29626 29630 28
23705 29631 29632 28
23706 29631 29633 28
23707 29631 29634 28
23708 29631 29635 28
23709 29636 29637 28
23710 29636 29638 28
23711 29636 29639 28
23712 29636 29640 28
23713 29641 29642 28
23714 29641 29643 28
23715 29641 29644 28
23716 29641 29645 28
23717 29646 29647 28
23718 29646 29648 28
23719 29646 29649 28
23720 29646 29650 28
23721 29651 29652 28
23722 29651 29653 28
23723 29651 29654 28
23724 29651 29655 28
23725 29656 29657 28
23726 29656 29658 28
23727 29656 29659 28
23728 29656 29660 28
23729 29661 29662 28
23730 29661 29663 28
23731 29661 29664 28
23732 29661 29665 28
23733 29666 29667 28
23734 29666 29668 28
23735 29666 29669 28
23736 29666 29670 28
23737 29671 29672 28
23738 29671 29673 28
23739 29671 29674 28
23740 29671 29675 28
23741 29676 29677 28
23742 29676 29678 28
23743 29676 29679 28
23744 29676 29680 28
23745 29681 29682 28
23746 29681 29683 28
23747 29681 29684 28
23748 29681 29685 28
23749 29686 29687 28
23750 29686 29688 28
23751 29686 29689 28
23752 29686 29690 28
23753 29691 29692 28
23754 29691 29693 28
23755 29691 29694 28
23756 29691 29695 28
23757 29696 29697 28
23758 29696 29698 28
23759 29696 29699 28
23760 29696 29700 28
23761 29701 29702 28
23762 29701 29703 28
23763 29701 29704 28
23764 29701 29705 28
23765 29706 29707 28
23766 29706 29708 28
23767 29706 29709 28
23768 29706 29710 28
23769 29711 29712 28
23770 29711 29713 28
23771 29711 29714 28
23772 29711 29715 28
23773 29716 29717 28
23774 29716 29718 28
23775 29716 29719 28
23776 29716 29720 28
23777 29721 29722 28
23778 29721 29723 28
23779 29721 29724 28
23780 29721 29725 28
23781 29726 29727 28
23782 29726 29728 28
23783 29726 29729 28
23784 29726 29730 28
23785 29731 29732 28
23786 29731 29733 28
23787 29731 29734 28
23788 29731 29735 28
23789 29736 29737 28
23790 29736 29738 28
23791 29736 29739 28
23792 29736 29740 28
23793 29741 29742 28
23794 29741 29743 28
23795 29741 29744 28
23796 29741 29745 28
23797 29746 29747 28
23798 29746 29748 28
23799 29746 29749 28
23800 29746 29750 28
23801 29751 29752 28
23802 29751 29753 28
23803 29751 29754 28
23804 29751 29755 28
23805 29756 29757 28
23806 29756 29758 28
23807 29756 29759 28
23808 29756 29760 28
23809 29761 29762 28
23810 29761 29763 28
23811 29761 29764 28
23812 29761 29765 28
23813 29766 29767 28
23814 29766 29768 28
23815 29766 29769 28
23816 29766 29770 28
23817 29771 29772 28
23818 29771 29773 28
23819 29771 29774 28
23820 29771 29775 28
23821 29776 29777 28
23822 29776 29778 28
23823 29776 29779 28
23824 29776 29780 28
23825 29781 29782 28
23826 29781 29783 28
23827 29781 29784 28
23828 29781 29785 28
23829 29786 29787 28
23830 29786 29788 28
23831 29786 29789 28
23832 29786 29790 28
23833 29791 29792 28
23834 29791 29793 28
23835 29791 29794 28
23836 29791 29795 28
23837 29796 29797 28
23838 29796 29798 28
23839 29796 29799 28
23840 29796 29800 28
23841 29801 29802 28
23842 29801 29803 28
23843 29801 29804 28
23844 29801 29805 28
23845 29806 29807 28
23846 29806 29808 28
23847 29806 29809 28
23848 29806 29810 28
23849 29811 29812 28
23850 29811 29813 28
23851 29811 29814 28
23852 29811 29815 28
23853 29816 29817 28
23854 29816 29818 28
23855 29816 29819 28
23856 29816 29820 28
23857 29821 29822 28
23858 29821 29823 28
23859 29821 29824 28
23860 29821 29825 28
23861 29826 29827 28
23862 29826 29828 28
23863 29826 29829 28
23864 29826 29830 28
23865 29831 29832 28
23866 29831 29833 28
23867 29831 29834 28
23868 29831 29835 28
23869 29836 29837 28
23870 29836 29838 28
23871 29836 29839 28
23872 29836 29840 28
23873 29841 29842 28
23874 29841 29843 28
23875 29841 29844 28
23876 29841 29845 28
23877 29846 29847 28
23878 29846 29848 28
23879 29846 29849 28
23880 29846 29850 28
23881 29851 29852 28
23882 29851 29853 28
23883 29851 29854 28
23884 29851 29855 28
23885 29856 29857 28
23886 29856 29858 28
23887 29856 29859 28
23888 29856 29860 28
23889 29861 29862 28
23890 29861 29863 28
23891 29861 29864 28
23892 29861 29865 28
23893 29866 29867 28
23894 29866 29868 28
23895 29866 29869 28
23896 29866 29870 28
23897 29871 29872 28
23898 29871 29873 28
23899 29871 29874 28
23900 29871 29875 28
23901 29876 29877 28
23902 29876 29878 28
23903 29876 29879 28
23904 29876 29880 28
23905 29881 29882 28
23906 29881 29883 28
23907 29881 29884 28
23908 29881 29885 28
23909 29886 29887 28
23910 29886 29888 28
23911 29886 29889 28
23912 29886 29890 28
23913 29891 29892 28
23914 29891 29893 28
23915 29891 29894 28
23916 29891 29895 28
23917 29896 29897 28
23918 29896 29898 28
23919 29896 29899 28
23920 29896 29900 28
23921 29901 29902 28
23922 29901 29903 28
23923 29901 29904 28
23924 29901 29905 28
23925 29906 29907 28
23926 29906 29908 28
23927 29906 29909 28
23928 29906 29910 28
23929 29911 29912 28
23930 29911 29913 28
23931 29911 29914 28
23932 29911 29915 28
23933 29916 29917 28
23934 29916 29918 28
23935 29916 29919 28
23936 29916 29920 28
23937 29921 29922 28
23938 29921 29923 28
23939 29921 29924 28
23940 29921 29925 28
23941 29926 29927 28
23942 29926 29928 28
23943 29926 29929 28
23944 29926 29930 28
23945 29931 29932 28
23946 29931 29933 28
23947 29931 29934 28
23948 29931 29935 28
23949 29936 29937 28
23950 29936 29938 28
23951 29936 29939 28
23952 29936 29940 28
23953 29941 29942 28
23954 29941 29943 28
23955 29941 29944 28
23956 29941 29945 28
23957 29946 29947 28
23958 29946 29948 28
23959 29946 29949 28
23960 29946 29950 28
23961 29951 29952 28
23962 29951 29953 28
23963 29951 29954 28
23964 29951 29955 28
23965 29956 29957 28
23966 29956 29958 28
23967 29956 29959 28
23968 29956 29960 28
23969 29961 29962 28
23970 29961 29963 28
23971 29961 29964 28
23972 29961 29965 28
23973 29966 29967 28
23974 29966 29968 28
23975 29966 29969 28
23976 29966 29970 28
23977 29971 29972 28
23978 29971 29973 28
23979 29971 29974 28
23980 29971 29975 28
23981 29976 29977 28
23982 29976 29978 28
23983 29976 29979 28
23984 29976 29980 28
23985 29981 29982 28
23986 29981 29983 28
23987 29981 29984 28
23988 29981 29985 28
23989 29986 29987 28
23990 29986 29988 28
23991 29986 29989 28
23992 29986 29990 28
23993 29991 29992 28
23994 29991 29993 28
23995 29991 29994 28
23996 29991 29995 28
23997 29996 29997 28
23998 29996 29998 28
23999 29996 29999 28
24000 29996 30000 28
24001 30001 30002 28
24002 30001 30003 28
24003 30001 30004 28
24004 30001 30005 28
24005 30006 30007 28
24006 30006 30008 28
24007 30006 30009 28
24008 30006 30010 28
24009 30011 30012 28
24010 30011 30013 28
24011 30011 30014 28
24012 30011 30015 28
24013 30016 30017 28
24014 30016 30018 28
24015 30016 30019 28
24016 30016 30020 28
24017 30021 30022 28
24018 30021 30023 28
24019 30021 30024 28
24020 30021 30025 28
24021 30026 30027 28
24022 30026 30028 28
24023 30026 30029 28
24024 30026 30030 28
24025 30031 30032 28
24026 30031 30033 28
24027 30031 30034 28
24028 30031 30035 28
24029 30036 30037 28
24030 30036 30038 28
24031 30036 30039 28
24032 30036 30040 28
24033 30041 30042 28
24034 30041 30043 28
24035 30041 30044 28
24036 30041 30045 28
24037 30046 30047 28
24038 30046 30048 28
24039 30046 30049 28
24040 30046 30050 28
24041 30051 30052 28
24042 30051 30053 28
24043 30051 30054 28
24044 30051 30055 28
24045 30056 30057 28
24046 30056 30058 28
24047 30056 30059 28
24048 30056 30060 28
24049 30061 30062 28
24050 30061 30063 28
24051 30061 30064 28
24052 30061 30065 28
24053 30066 30067 28
24054 30066 30068 28
24055 30066 30069 28
24056 30066 30070 28
24057 30071 30072 28
24058 30071 30073 28
24059 30071 30074 28
24060 30071 30075 28
24061 30076 30077 28
24062 30076 30078 28
24063 30076 30079 28
24064 30076 30080 28
24065 30081 30082 28
24066 30081 30083 28
24067 30081 30084 28
24068 30081 30085 28
24069 30086 30087 28
24070 30086 30088 28
24071 30086 30089 28
24072 30086 30090 28
24073 30091 30092 28
24074 30091 30093 28
24075 30091 30094 28
24076 30091 30095 28
24077 30096 30097 28
24078 30096 30098 28
24079 30096 30099 28
24080 30096 30100 28
24081 30101 30102 28
24082 30101 30103 28
24083 30101 30104 28
24084 30101 30105 28
24085 30106 30107 28
24086 30106 30108 28
24087 30106 30109 28
24088 30106 30110 28
24089 30111 30112 28
24090 30111 30113 28
24091 30111 30114 28
24092 30111 30115 28
24093 30116 30117 28
24094 30116 30118 28
24095 30116 30119 28
24096 30116 30120 28
24097 30121 30122 28
24098 30121 30123 28
24099 30121 30124 28
24100 30121 30125 28
24101 30126 30127 28
24102 30126 30128 28
24103 30126 30129 28
24104 30126 30130 28
24105 30131 30132 28
24106 30131 30133 28
24107 30131 30134 28
24108 30131 30135 28
24109 30136 30137 28
24110 30136 30138 28
24111 30136 30139 28
24112 30136 30140 28
24113 30141 30142 28
24114 30141 30143 28
24115 30141 30144 28
24116 30141 30145 28
24117 30146 30147 28
24118 30146 30148 28
24119 30146 30149 28
24120 30146 30150 28
24121 30151 30152 28
24122 30151 30153 28
24123 30151 30154 28
24124 30151 30155 28
24125 30156 30157 28
24126 30156 30158 28
24127 30156 30159 28
24128 30156 30160 28
24129 30161 30162 28
24130 30161 30163 28
24131 30161 30164 28
24132 30161 30165 28
24133 30166 30167 28
24134 30166 30168 28
24135 30166 30169 28
24136 30166 30170 28
24137 30171 30172 28
24138 30171 30173 28
24139 30171 30174 28
24140 30171 30175 28
24141 30176 30177 28
24142 30176 30178 28
24143 30176 30179 28
24144 30176 30180 28
24145 30181 30182 28
24146 30181 30183 28
24147 30181 30184 28
24148 30181 30185 28
24149 30186 30187 28
24150 30186 30188 28
24151 30186 30189 28
24152 30186 30190 28
24153 30191 30192 28
24154 30191 30193 28
24155 30191 30194 28
24156 30191 30195 28
24157 30196 30197 28
24158 30196 30198 28
24159 30196 30199 28
24160 30196 30200 28
24161 30201 30202 28
24162 30201 30203 28
24163 30201 30204 28
24164 30201 30205 28
24165 30206 30207 28
24166 30206 30208 28
24167 30206 30209 28
24168 30206 30210 28
24169 30211 30212 28
24170 30211 30213 28
24171 30211 30214 28
24172 30211 30215 28
24173 30216 30217 28
24174 30216 30218 28
24175 30216 30219 28
24176 30216 30220 28
24177 30221 30222 28
24178 30221 30223 28
24179 30221 30224 28
24180 30221 30225 28
24181 30226 30227 28
24182 30226 30228 28
24183 30226 30229 28
24184 30226 30230 28
24185 30231 30232 28
24186 30231 30233 28
24187 30231 30234 28
24188 30231 30235 28
24189 30236 30237 28
24190 30236 30238 28
24191 30236 30239 28
24192 30236 30240 28
24193 30241 30242 28
24194 30241 30243 28
24195 30241 30244 28
24196 30241 30245 28
24197 30246 30247 28
24198 30246 30248 28
24199 30246 30249 28
24200 30246 30250 28
24201 30251 30252 28
24202 30251 30253 28
24203 30251 30254 28
24204 30251 30255 28
24205 30256 30257 28
24206 30256 30258 28
24207 30256 30259 28
24208 30256 30260 28
24209 30261 30262 28
24210 30261 30263 28
24211 30261 30264 28
24212 30261 30265 28
24213 30266 30267 28
24214 30266 30268 28
24215 30266 30269 28
24216 30266 30270 28
24217 30271 30272 28
24218 30271 30273 28
24219 30271 30274 28
24220 30271 30275 28
24221 30276 30277 28
24222 30276 30278 28
24223 30276 30279 28
24224 30276 30280 28
24225 30281 30282 28
24226 30281 30283 28
24227 30281 30284 28
24228 30281 30285 28
24229 30286 30287 28
24230 30286 30288 28
24231 30286 30289 28
24232 30286 30290 28
24233 30291 30292 28
24234 30291 30293 28
24235 30291 30294 28
24236 30291 30295 28
24237 30296 30297 28
24238 30296 30298 28
24239 30296 30299 28
24240 30296 30300 28
24241 30301 30302 28
24242 30301 30303 28
24243 30301 30304 28
24244 30301 30305 28
24245 30306 30307 28
24246 30306 30308 28
24247 30306 30309 28
24248 30306 30310 28
24249 30311 30312 28
24250 30311 30313 28
24251 30311 30314 28
24252 30311 30315 28
24253 30316 30317 28
24254 30316 30318 28
24255 30316 30319 28
24256 30316 30320 28
24257 30321 30322 28
24258 30321 30323 28
24259 30321 30324 28
24260 30321 30325 28
24261 30326 30327 28
24262 30326 30328 28
24263 30326 30329 28
24264 30326 30330 28
24265 30331 30332 28
24266 30331 30333 28
24267 30331 30334 28
24268 30331 30335 28
24269 30336 30337 28
24270 30336 30338 28
24271 30336 30339 28
24272 30336 30340 28
24273 30341 30342 28
24274 30341 30343 28
24275 30341 30344 28
24276 30341 30345 28
24277 30346 30347 28
24278 30346 30348 28
24279 30346 30349 28
24280 30346 30350 28
24281 30351 30352 28
24282 30351 30353 28
24283 30351 30354 28
24284 30351 30355 28
24285 30356 30357 28
24286 30356 30358 28
24287 30356 30359 28
24288 30356 30360 28
24289 30361 30362 28
24290 30361 30363 28
24291 30361 30364 28
24292 30361 30365 28
24293 30366 30367 28
24294 30366 30368 28
24295 30366 30369 28
24296 30366 30370 28
24297 30371 30372 28
24298 30371 30373 28
24299 30371 30374 28
24300 30371 30375 28
24301 30376 30377 28
24302 30376 30378 28
24303 30376 30379 28
24304 30376 30380 28
24305 30381 30382 28
24306 30381 30383 28
24307 30381 30384 28
24308 30381 30385 28
24309 30386 30387 28
24310 30386 30388 28
24311 30386 30389 28
24312 30386 30390 28
24313 30391 30392 28
24314 30391 30393 28
24315 30391 30394 28
24316 30391 30395 28
24317 30396 30397 28
24318 30396 30398 28
24319 30396 30399 28
24320 30396 30400 28
24321 30401 30402 28
24322 30401 30403 28
24323 30401 30404 28
24324 30401 30405 28
24325 30406 30407 28
24326 30406 30408 28
24327 30406 30409 28
24328 30406 30410 28
24329 30411 30412 28
24330 30411 30413 28
24331 30411 30414 28
24332 30411 30415 28
24333 30416 30417 28
24334 30416 30418 28
24335 30416 30419 28
24336 30416 30420 28
24337 30421 30422 28
24338 30421 30423 28
24339 30421 30424 28
24340 30421 30425 28
24341 30426 30427 28
24342 30426 30428 28
24343 30426 30429 28
24344 30426 30430 28
24345 30431 30432 28
24346 30431 30433 28
24347 30431 30434 28
24348 30431 30435 28
24349 30436 30437 28
24350 30436 30438 28
24351 30436 30439 28
24352 30436 30440 28
24353 30441 30442 28
24354 30441 30443 28
24355 30441 30444 28
24356 30441 30445 28
24357 30446 30447 28
24358 30446 30448 28
24359 30446 30449 28
24360 30446 30450 28
24361 30451 30452 28
24362 30451 30453 28
24363 30451 30454 28
24364 30451 30455 28
24365 30456 30457 28
24366 30456 30458 28
24367 30456 30459 28
24368 30456 30460 28
24369 30461 30462 28
24370 30461 30463 28
24371 30461 30464 28
24372 30461 30465 28
24373 30466 30467 28
24374 30466 30468 28
24375 30466 30469 28
24376 30466 30470 28
24377 30471 30472 28
24378 30471 30473 28
24379 30471 30474 28
24380 30471 30475 28
24381 30476 30477 28
24382 30476 30478 28
24383 30476 30479 28
24384 30476 30480 28
24385 30481 30482 28
24386 30481 30483 28
24387 30481 30484 28
24388 30481 30485 28
24389 30486 30487 28
24390 30486 30488 28
24391 30486 30489 28
24392 30486 30490 28
24393 30491 30492 28
24394 30491 30493 28
24395 30491 30494 28
24396 30491 30495 28
24397 30496 30497 28
24398 30496 30498 28
24399 30496 30499 28
24400 30496 30500 28
24401 30501 30502 28
24402 30501 30503 28
24403 30501 30504 28
24404 30501 30505 28
24405 30506 30507 28
24406 30506 30508 28
24407 30506 30509 28
24408 30506 30510 28
24409 30511 30512 28
24410 30511 30513 28
24411 30511 30514 28
24412 30511 30515 28
24413 30516 30517 28
24414 30516 30518 28
24415 30516 30519 28
24416 30516 30520 28
24417 30521 30522 28
24418 30521 30523 28
24419 30521 30524 28
24420 30521 30525 28
24421 30526 30527 28
24422 30526 30528 28
24423 30526 30529 28
24424 30526 30530 28
24425 30531 30532 28
24426 30531 30533 28
24427 30531 30534 28
24428 30531 30535 28
24429 30536 30537 28
24430 30536 30538 28
24431 30536 30539 28
24432 30536 30540 28
24433 30541 30542 28
24434 30541 30543 28
24435 30541 30544 28
24436 30541 30545 28
24437 30546 30547 28
24438 30546 30548 28
24439 30546 30549 28
24440 30546 30550 28
24441 30551 30552 28
24442 30551 30553 28
24443 30551 30554 28
24444 30551 30555 28
24445 30556 30557 28
24446 30556 30558 28
24447 30556 30559 28
24448 30556 30560 28
24449 30561 30562 28
24450 30561 30563 28
24451 30561 30564 28
24452 30561 30565 28
24453 30566 30567 28
24454 30566 30568 28
24455 30566 30569 28
24456 30566 30570 28
24457 30571 30572 28
24458 30571 30573 28
24459 30571 30574 28
24460 30571 30575 28
24461 30576 30577 28
24462 30576 30578 28
24463 30576 30579 28
24464 30576 30580 28
24465 30581 30582 28
24466 30581 30583 28
24467 30581 30584 28
24468 30581 30585 28
24469 30586 30587 28
24470 30586 30588 28
24471 30586 30589 28
24472 30586 30590 28
24473 30591 30592 28
24474 30591 30593 28
24475 30591 30594 28
24476 30591 30595 28
24477 30596 30597 28
24478 30596 30598 28
24479 30596 30599 28
24480 30596 30600 28
24481 30601 30602 28
24482 30601 30603 28
24483 30601 30604 28
24484 30601 30605 28
24485 30606 30607 28
24486 30606 30608 28
24487 30606 30609 28
24488 30606 30610 28
24489 30611 30612 28
24490 30611 30613 28
24491 30611 30614 28
24492 30611 30615 28
24493 30616 30617 28
24494 30616 30618 28
24495 30616 30619 28
24496 30616 30620 28
24497 30621 30622 28
24498 30621 30623 28
24499 30621 30624 28
24500 30621 30625 28
24501 30626 30627 28
24502 30626 30628 28
24503 30626 30629 28
24504 30626 30630 28
24505 30631 30632 28
24506 30631 30633 28
24507 30631 30634 28
24508 30631 30635 28
24509 30636 30637 28
24510 30636 30638 28
24511 30636 30639 28
24512 30636 30640 28
24513 30641 30642 28
24514 30641 30643 28
24515 30641 30644 28
24516 30641 30645 28
24517 30646 30647 28
24518 30646 30648 28
24519 30646 30649 28
24520 30646 30650 28
24521 30651 30652 28
24522 30651 30653 28
24523 30651 30654 28
24524 30651 30655 28
24525 30656 30657 28
24526 30656 30658 28
24527 30656 30659 28
24528 30656 30660 28
24529 30661 30662 28
24530 30661 30663 28
24531 30661 30664 28
24532 30661 30665 28
24533 30666 30667 28
24534 30666 30668 28
24535 30666 30669 28
24536 30666 30670 28
24537 30671 30672 28
24538 30671 30673 28
24539 30671 30674 28
24540 30671 30675 28
24541 30676 30677 28
24542 30676 30678 28
24543 30676 30679 28
24544 30676 30680 28
24545 30681 30682 28
24546 30681 30683 28
24547 30681 30684 28
24548 30681 30685 28
24549 30686 30687 28
24550 30686 30688 28
24551 30686 30689 28
24552 30686 30690 28
24553 30691 30692 28
24554 30691 30693 28
24555 30691 30694 28
24556 30691 30695 28
24557 30696 30697 28
24558 30696 30698 28
24559 30696 30699 28
24560 30696 30700 28
24561 30701 30702 28
24562 30701 30703 28
24563 30701 30704 28
24564 30701 30705 28
24565 30706 30707 28
24566 30706 30708 28
24567 30706 30709 28
24568 30706 30710 28
24569 30711 30712 28
24570 30711 30713 28
24571 30711 30714 28
24572 30711 30715 28
24573 30716 30717 28
24574 30716 30718 28
24575 30716 30719 28
24576 30716 30720 28
24577 30721 30722 28
24578 30721 30723 28
24579 30721 30724 28
24580 30721 30725 28
24581 30726 30727 28
24582 30726 30728 28
24583 30726 30729 28
24584 30726 30730 28
24585 30731 30732 28
24586 30731 30733 28
24587 30731 30734 28
24588 30731 30735 28
24589 30736 30737 28
24590 30736 30738 28
24591 30736 30739 28
24592 30736 30740 28
24593 30741 30742 28
24594 30741 30743 28
24595 30741 30744 28
24596 30741 30745 28
24597 30746 30747 28
24598 30746 30748 28
24599 30746 30749 28
24600 30746 30750 28
24601 30751 30752 28
24602 30751 30753 28
24603 30751 30754 28
24604 30751 30755 28
24605 30756 30757 28
24606 30756 30758 28
24607 30756 30759 28
24608 30756 30760 28
24609 30761 30762 28
24610 30761 30763 28
24611 30761 30764 28
24612 30761 30765 28
24613 30766 30767 28
24614 30766 30768 28
24615 30766 30769 28
24616 30766 30770 28
24617 30771 30772 28
24618 30771 30773 28
24619 30771 30774 28
24620 30771 30775 28
24621 30776 30777 28
24622 30776 30778 28
24623 30776 30779 28
24624 30776 30780 28
24625 30781 30782 28
24626 30781 30783 28
24627 30781 30784 28
24628 30781 30785 28
24629 30786 30787 28
24630 30786 30788 28
24631 30786 30789 28
24632 30786 30790 28
24633 30791 30792 28
24634 30791 30793 28
24635 30791 30794 28
24636 30791 30795 28
24637 30796 30797 28
24638 30796 30798 28
24639 30796 30799 28
24640 30796 30800 28
24641 30801 30802 28
24642 30801 30803 28
24643 30801 30804 28
24644 30801 30805 28
24645 30806 30807 28
24646 30806 30808 28
24647 30806 30809 28
24648 30806 30810 28
24649 30811 30812 28
24650 30811 30813 28
24651 30811 30814 28
24652 30811 30815 28
24653 30816 30817 28
24654 30816 30818 28
24655 30816 30819 28
24656 30816 30820 28
24657 30821 30822 28
24658 30821 30823 28
24659 30821 30824 28
24660 30821 30825 28
24661 30826 30827 28
24662 30826 30828 28
24663 30826 30829 28
24664 30826 30830 28
24665 30831 30832 28
24666 30831 30833 28
24667 30831 30834 28
24668 30831 30835 28
24669 30836 30837 28
24670 30836 30838 28
24671 30836 30839 28
24672 30836 30840 28
24673 30841 30842 28
24674 30841 30843 28
24675 30841 30844 28
24676 30841 30845 28
24677 30846 30847 28
24678 30846 30848 28
24679 30846 30849 28
24680 30846 30850 28
24681 30851 30852 28
24682 30851 30853 28
24683 30851 30854 28
24684 30851 30855 28
24685 30856 30857 28
24686 30856 30858 28
24687 30856 30859 28
24688 30856 30860 28
24689 30861 30862 28
24690 30861 30863 28
24691 30861 30864 28
24692 30861 30865 28
24693 30866 30867 28
24694 30866 30868 28
24695 30866 30869 28
24696 30866 30870 28
24697 30871 30872 28
24698 30871 30873 28
24699 30871 30874 28
24700 30871 30875 28
24701 30876 30877 28
24702 30876 30878 28
24703 30876 30879 28
24704 30876 30880 28
24705 30881 30882 28
24706 30881 30883 28
24707 30881 30884 28
24708 30881 30885 28
24709 30886 30887 28
24710 30886 30888 28
24711 30886 30889 28
24712 30886 30890 28
24713 30891 30892 28
24714 30891 30893 28
24715 30891 30894 28
24716 30891 30895 28
24717 30896 30897 28
24718 30896 30898 28
24719 30896 30899 28
24720 30896 30900 28
24721 30901 30902 28
24722 30901 30903 28
24723 30901 30904 28
24724 30901 30905 28
24725 30906 30907 28
24726 30906 30908 28
24727 30906 30909 28
24728 30906 30910 28
24729 30911 30912 28
24730 30911 30913 28
24731 30911 30914 28
24732 30911 30915 28
24733 30916 30917 28
24734 30916 30918 28
24735 30916 30919 28
24736 30916 30920 28
24737 30921 30922 28
24738 30921 30923 28
24739 30921 30924 28
24740 30921 30925 28
24741 30926 30927 28
24742 30926 30928 28
24743 30926 30929 28
24744 30926 30930 28
24745 30931 30932 28
24746 30931 30933 28
24747 30931 30934 28
24748 30931 30935 28
24749 30936 30937 28
24750 30936 30938 28
24751 30936 30939 28
24752 30936 30940 28
24753 30941 30942 28
24754 30941 30943 28
24755 30941 30944 28
24756 30941 30945 28
24757 30946 30947 28
24758 30946 30948 28
24759 30946 30949 28
24760 30946 30950 28
24761 30951 30952 28
24762 30951 30953 28
24763 30951 30954 28
24764 30951 30955 28
24765 30956 30957 28
24766 30956 30958 28
24767 30956 30959 28
24768 30956 30960 28
24769 30961 30962 28
24770 30961 30963 28
24771 30961 30964 28
24772 30961 30965 28
24773 30966 30967 28
24774 30966 30968 28
24775 30966 30969 28
24776 30966 30970 28
24777 30971 30972 28
24778 30971 30973 28
24779 30971 30974 28
24780 30971 30975 28
24781 30976 30977 28
24782 30976 30978 28
24783 30976 30979 28
24784 30976 30980 28
24785 30981 30982 28
24786 30981 30983 28
24787 30981 30984 28
24788 30981 30985 28
24789 30986 30987 28
24790 30986 30988 28
24791 30986 30989 28
24792 30986 30990 28
24793 30991 30992 28
24794 30991 30993 28
24795 30991 30994 28
24796 30991 30995 28
24797 30996 30997 28
24798 30996 30998 28
24799 30996 30999 28
24800 30996 31000 28
24801 31001 31002 28
24802 31001 31003 28
24803 31001 31004 28
24804 31001 31005 28
24805 31006 31007 28
24806 31006 31008 28
24807 31006 31009 28
24808 31006 31010 28
24809 31011 31012 28
24810 31011 31013 28
24811 31011 31014 28
24812 31011 31015 28
24813 31016 31017 28
24814 31016 31018 28
24815 31016 31019 28
24816 31016 31020 28
24817 31021 31022 28
24818 31021 31023 28
24819 31021 31024 28
24820 31021 31025 28
24821 31026 31027 28
24822 31026 31028 28
24823 31026 31029 28
24824 31026 31030 28
24825 31031 31032 28
24826 31031 31033 28
24827 31031 31034 28
24828 31031 31035 28
24829 31036 31037 28
24830 31036 31038 28
24831 31036 31039 28
24832 31036 31040 28
24833 31041 31042 28
24834 31041 31043 28
24835 31041 31044 28
24836 31041 31045 28
24837 31046 31047 28
24838 31046 31048 28
24839 31046 31049 28
24840 31046 31050 28
24841 31051 31052 28
24842 31051 31053 28
24843 31051 31054 28
24844 31051 31055 28
24845 31056 31057 28
24846 31056 31058 28
24847 31056 31059 28
24848 31056 31060 28
24849 31061 31062 28
24850 31061 31063 28
24851 31061 31064 28
24852 31061 31065 28
24853 31066 31067 28
24854 31066 31068 28
24855 31066 31069 28
24856 31066 31070 28
24857 31071 31072 28
24858 31071 31073 28
24859 31071 31074 28
24860 31071 31075 28
24861 31076 31077 28
24862 31076 31078 28
24863 31076 31079 28
24864 31076 31080 28
24865 31081 31082 28
24866 31081 31083 28
24867 31081 31084 28
24868 31081 31085 28
24869 31086 31087 28
24870 31086 31088 28
24871 31086 31089 28
24872 31086 31090 28
24873 31091 31092 28
24874 31091 31093 28
24875 31091 31094 28
24876 31091 31095 28
24877 31096 31097 28
24878 31096 31098 28
24879 31096 31099 28
24880 31096 31100 28
24881 31101 31102 28
24882 31101 31103 28
24883 31101 31104 28
24884 31101 31105 28
24885 31106 31107 28
24886 31106 31108 28
24887 31106 31109 28
24888 31106 31110 28
24889 31111 31112 28
24890 31111 31113 28
24891 31111 31114 28
24892 31111 31115 28
24893 31116 31117 28
24894 31116 31118 28
24895 31116 31119 28
24896 31116 31120 28
24897 31121 31122 28
24898 31121 31123 28
24899 31121 31124 28
24900 31121 31125 28
24901 31126 31127 28
24902 31126 31128 28
24903 31126 31129 28
24904 31126 31130 28
24905 31131 31132 28
24906 31131 31133 28
24907 31131 31134 28
24908 31131 31135 28
24909 31136 31137 28
24910 31136 31138 28
24911 31136 31139 28
24912 31136 31140 28
24913 31141 31142 28
24914 31141 31143 28
24915 31141 31144 28
24916 31141 31145 28
24917 31146 31147 28
24918 31146 31148 28
24919 31146 31149 28
24920 31146 31150 28
24921 31151 31152 28
24922 31151 31153 28
24923 31151 31154 28
24924 31151 31155 28
24925 31156 31157 28
24926 31156 31158 28
24927 31156 31159 28
24928 31156 31160 28
24929 31161 31162 28
24930 31161 31163 28
24931 31161 31164 28
24932 31161 31165 28
24933 31166 31167 28
24934 31166 31168 28
24935 31166 31169 28
24936 31166 31170 28
24937 31171 31172 28
24938 31171 31173 28
24939 31171 31174 28
24940 31171 31175 28
24941 31176 31177 28
24942 31176 31178 28
24943 31176 31179 28
24944 31176 31180 28
24945 31181 31182 28
24946 31181 31183 28
24947 31181 31184 28
24948 31181 31185 28
24949 31186 31187 28
24950 31186 31188 28
24951 31186 31189 28
24952 31186 31190 28
24953 31191 31192 28
24954 31191 31193 28
24955 31191 31194 28
24956 31191 31195 28
24957 31196 31197 28
24958 31196 31198 28
24959 31196 31199 28
24960 31196 31200 28
24961 31201 31202 28
24962 31201 31203 28
24963 31201 31204 28
24964 31201 31205 28
24965 31206 31207 28
24966 31206 31208 28
24967 31206 31209 28
24968 31206 31210 28
24969 31211 31212 28
24970 31211 31213 28
24971 31211 31214 28
24972 31211 31215 28
24973 31216 31217 28
24974 31216 31218 28
24975 31216 31219 28
24976 31216 31220 28
24977 31221 31222 28
24978 31221 31223 28
24979 31221 31224 28
24980 31221 31225 28
24981 31226 31227 28
24982 31226 31228 28
24983 31226 31229 28
24984 31226 31230 28
24985 31231 31232 28
24986 31231 31233 28
24987 31231 31234 28
24988 31231 31235 28
24989 31236 31237 28
24990 31236 31238 28
24991 31236 31239 28
24992 31236 31240 28
24993 31241 31242 28
24994 31241 31243 28
24995 31241 31244 28
24996 31241 31245 28
24997 31246 31247 28
24998 31246 31248 28
24999 31246 31249 28
25000 31246 31250 28
25001 31251 31252 28
25002 31251 31253 28
25003 31251 31254 28
25004 31251 31255 28
25005 31256 31257 28
25006 31256 31258 28
25007 31256 31259 28
25008 31256 31260 28
25009 31261 31262 28
25010 31261 31263 28
25011 31261 31264 28
25012 31261 31265 28
25013 31266 31267 28
25014 31266 31268 28
25015 31266 31269 28
25016 31266 31270 28
25017 31271 31272 28
25018 31271 31273 28
25019 31271 31274 28
25020 31271 31275 28
25021 31276 31277 28
25022 31276 31278 28
25023 31276 31279 28
25024 31276 31280 28
25025 31281 31282 28
25026 31281 31283 28
25027 31281 31284 28
25028 31281 31285 28
25029 31286 31287 28
25030 31286 31288 28
25031 31286 31289 28
25032 31286 31290 28
25033 31291 31292 28
25034 31291 31293 28
25035 31291 31294 28
25036 31291 31295 28
25037 31296 31297 28
25038 31296 31298 28
25039 31296 31299 28
25040 31296 31300 28
25041 31301 31302 28
25042 31301 31303 28
25043 31301 31304 28
25044 31301 31305 28
25045 31306 31307 28
25046 31306 31308 28
25047 31306 31309 28
25048 31306 31310 28
25049 31311 31312 28
25050 31311 31313 28
25051 31311 31314 28
25052 31311 31315 28
25053 31316 31317 28
25054 31316 31318 28
25055 31316 31319 28
25056 31316 31320 28
25057 31321 31322 28
25058 31321 31323 28
25059 31321 31324 28
25060 31321 31325 28
25061 31326 31327 28
25062 31326 31328 28
25063 31326 31329 28
25064 31326 31330 28
25065 31331 31332 28
25066 31331 31333 28
25067 31331 31334 28
25068 31331 31335 28
25069 31336 31337 28
25070 31336 31338 28
25071 31336 31339 28
25072 31336 31340 28
25073 31341 31342 28
25074 31341 31343 28
25075 31341 31344 28
25076 31341 31345 28
25077 31346 31347 28
25078 31346 31348 28
25079 31346 31349 28
25080 31346 31350 28
25081 31351 31352 28
25082 31351 31353 28
25083 31351 31354 28
25084 31351 31355 28
25085 31356 31357 28
25086 31356 31358 28
25087 31356 31359 28
25088 31356 31360 28
25089 31361 31362 28
25090 31361 31363 28
25091 31361 31364 28
25092 31361 31365 28
25093 31366 31367 28
25094 31366 31368 28
25095 31366 31369 28
25096 31366 31370 28
25097 31371 31372 28
25098 31371 31373 28
25099 31371 31374 28
25100 31371 31375 28
25101 31376 31377 28
25102 31376 31378 28
25103 31376 31379 28
25104 31376 31380 28
25105 31381 31382 28
25106 31381 31383 28
25107 31381 31384 28
25108 31381 31385 28
25109 31386 31387 28
25110 31386 31388 28
25111 31386 31389 28
25112 31386 31390 28
25113 31391 31392 28
25114 31391 31393 28
25115 31391 31394 28
25116 31391 31395 28
25117 31396 31397 28
25118 31396 31398 28
25119 31396 31399 28
25120 31396 31400 28
25121 31401 31402 28
25122 31401 31403 28
25123 31401 31404 28
25124 31401 31405 28
25125 31406 31407 28
25126 31406 31408 28
25127 31406 31409 28
25128 31406 31410 28
25129 31411 31412 28
25130 31411 31413 28
25131 31411 31414 28
25132 31411 31415 28
25133 31416 31417 28
25134 31416 31418 28
25135 31416 31419 28
25136 31416 31420 28
25137 31421 31422 28
25138 31421 31423 28
25139 31421 31424 28
25140 31421 31425 28
25141 31426 31427 28
25142 31426 31428 28
25143 31426 31429 28
25144 31426 31430 28
25145 31431 31432 28
25146 31431 31433 28
25147 31431 31434 28
25148 31431 31435 28
25149 31436 31437 28
25150 31436 31438 28
25151 31436 31439 28
25152 31436 31440 28
25153 31441 31442 28
25154 31441 31443 28
25155 31441 31444 28
25156 31441 31445 28
25157 31446 31447 28
25158 31446 31448 28
25159 31446 31449 28
25160 31446 31450 28
25161 31451 31452 28
25162 31451 31453 28
25163 31451 31454 28
25164 31451 31455 28
25165 31456 31457 28
25166 31456 31458 28
25167 31456 31459 28
25168 31456 31460 28
25169 31461 31462 28
25170 31461 31463 28
25171 31461 31464 28
25172 31461 31465 28
25173 31466 31467 28
25174 31466 31468 28
25175 31466 31469 28
25176 31466 31470 28
25177 31471 31472 28
25178 31471 31473 28
25179 31471 31474 28
25180 31471 31475 28
25181 31476 31477 28
25182 31476 31478 28
25183 31476 31479 28
25184 31476 31480 28
25185 31481 31482 28
25186 31481 31483 28
25187 31481 31484 28
25188 31481 31485 28
25189 31486 31487 28
25190 31486 31488 28
25191 31486 31489 28
25192 31486 31490 28
25193 31491 31492 28
25194 31491 31493 28
25195 31491 31494 28
25196 31491 31495 28
25197 31496 31497 28
25198 31496 31498 28
25199 31496 31499 28
25200 31496 31500 28
25201 31501 31502 28
25202 31501 31503 28
25203 31501 31504 28
25204 31501 31505 28
25205 31506 31507 28
25206 31506 31508 28
25207 31506 31509 28
25208 31506 31510 28
25209 31511 31512 28
25210 31511 31513 28
25211 31511 31514 28
25212 31511 31515 28
25213 31516 31517 28
25214 31516 31518 28
25215 31516 31519 28
25216 31516 31520 28
25217 31521 31522 28
25218 31521 31523 28
25219 31521 31524 28
25220 31521 31525 28
25221 31526 31527 28
25222 31526 31528 28
25223 31526 31529 28
25224 31526 31530 28
25225 31531 31532 28
25226 31531 31533 28
25227 31531 31534 28
25228 31531 31535 28
25229 31536 31537 28
25230 31536 31538 28
25231 31536 31539 28
25232 31536 31540 28
25233 31541 31542 28
25234 31541 31543 28
25235 31541 31544 28
25236 31541 31545 28
25237 31546 31547 28
25238 31546 31548 28
25239 31546 31549 28
25240 31546 31550 28
25241 31551 31552 28
25242 31551 31553 28
25243 31551 31554 28
25244 31551 31555 28
25245 31556 31557 28
25246 31556 31558 28
25247 31556 31559 28
25248 31556 31560 28
25249 31561 31562 28
25250 31561 31563 28
25251 31561 31564 28
25252 31561 31565 28
25253 31566 31567 28
25254 31566 31568 28
25255 31566 31569 28
25256 31566 31570 28
25257 31571 31572 28
25258 31571 31573 28
25259 31571 31574 28
25260 31571 31575 28
25261 31576 31577 28
25262 31576 31578 28
25263 31576 31579 28
25264 31576 31580 28
25265 31581 31582 28
25266 31581 31583 28
25267 31581 31584 28
25268 31581 31585 28
25269 31586 31587 28
25270 31586 31588 28
25271 31586 31589 28
25272 31586 31590 28
25273 31591 31592 28
25274 31591 31593 28
25275 31591 31594 28
25276 31591 31595 28
25277 31596 31597 28
25278 31596 31598 28
25279 31596 31599 28
25280 31596 31600 28
25281 31601 31602 28
25282 31601 31603 28
25283 31601 31604 28
25284 31601 31605 28
25285 31606 31607 28
25286 31606 31608 28
25287 31606 31609 28
25288 31606 31610 28
25289 31611 31612 28
25290 31611 31613 28
25291 31611 31614 28
25292 31611 31615 28
25293 31616 31617 28
25294 31616 31618 28
25295 31616 31619 28
25296 31616 31620 28
25297 31621 31622 28
25298 31621 31623 28
25299 31621 31624 28
25300 31621 31625 28
25301 31626 31627 28
25302 31626 31628 28
25303 31626 31629 28
25304 31626 31630 28
25305 31631 31632 28
25306 31631 31633 28
25307 31631 31634 28
25308 31631 31635 28
25309 31636 31637 28
25310 31636 31638 28
25311 31636 31639 28
25312 31636 31640 28
25313 31641 31642 28
25314 31641 31643 28
25315 31641 31644 28
25316 31641 31645 28
25317 31646 31647 28
25318 31646 31648 28
25319 31646 31649 28
25320 31646 31650 28
25321 31651 31652 28
25322 31651 31653 28
25323 31651 31654 28
25324 31651 31655 28
25325 31656 31657 28
25326 31656 31658 28
25327 31656 31659 28
25328 31656 31660 28
25329 31661 31662 28
25330 31661 31663 28
25331 31661 31664 28
25332 31661 31665 28
25333 31666 31667 28
25334 31666 31668 28
25335 31666 31669 28
25336 31666 31670 28
25337 31671 31672 28
25338 31671 31673 28
25339 31671 31674 28
25340 31671 31675 28
25341 31676 31677 28
25342 31676 31678 28
25343 31676 31679 28
25344 31676 31680 28
25345 31681 31682 28
25346 31681 31683 28
25347 31681 31684 28
25348 31681 31685 28
25349 31686 31687 28
25350 31686 31688 28
25351 31686 31689 28
25352 31686 31690 28
25353 31691 31692 28
25354 31691 31693 28
25355 31691 31694 28
25356 31691 31695 28
25357 31696 31697 28
25358 31696 31698 28
25359 31696 31699 28
25360 31696 31700 28
25361 31701 31702 28
25362 31701 31703 28
25363 31701 31704 28
25364 31701 31705 28
25365 31706 31707 28
25366 31706 31708 28
25367 31706 31709 28
25368 31706 31710 28
25369 31711 31712 28
25370 31711 31713 28
25371 31711 31714 28
25372 31711 31715 28
25373 31716 31717 28
25374 31716 31718 28
25375 31716 31719 28
25376 31716 31720 28
25377 31721 31722 28
25378 31721 31723 28
25379 31721 31724 28
25380 31721 31725 28
25381 31726 31727 28
25382 31726 31728 28
25383 31726 31729 28
25384 31726 31730 28
25385 31731 31732 28
25386 31731 31733 28
25387 31731 31734 28
25388 31731 31735 28
25389 31736 31737 28
25390 31736 31738 28
25391 31736 31739 28
25392 31736 31740 28
25393 31741 31742 28
25394 31741 31743 28
25395 31741 31744 28
25396 31741 31745 28
25397 31746 31747 28
25398 31746 31748 28
25399 31746 31749 28
25400 31746 31750 28
25401 31751 31752 28
25402 31751 31753 28
25403 31751 31754 28
25404 31751 31755 28
25405 31756 31757 28
25406 31756 31758 28
25407 31756 31759 28
25408 31756 31760 28
25409 31761 31762 28
25410 31761 31763 28
25411 31761 31764 28
25412 31761 31765 28
25413 31766 31767 28
25414 31766 31768 28
25415 31766 31769 28
25416 31766 31770 28
25417 31771 31772 28
25418 31771 31773 28
25419 31771 31774 28
25420 31771 31775 28
25421 31776 31777 28
25422 31776 31778 28
25423 31776 31779 28
25424 31776 31780 28
25425 31781 31782 28
25426 31781 31783 28
25427 31781 31784 28
25428 31781 31785 28
25429 31786 31787 28
25430 31786 31788 28
25431 31786 31789 28
25432 31786 31790 28
25433 31791 31792 28
25434 31791 31793 28
25435 31791 31794 28
25436 31791 31795 28
25437 31796 31797 28
25438 31796 31798 28
25439 31796 31799 28
25440 31796 31800 28
25441 31801 31802 28
25442 31801 31803 28
25443 31801 31804 28
25444 31801 31805 28
25445 31806 31807 28
25446 31806 31808 28
25447 31806 31809 28
25448 31806 31810 28
25449 31811 31812 28
25450 31811 31813 28
25451 31811 31814 28
25452 31811 31815 28
25453 31816 31817 28
25454 31816 31818 28
25455 31816 31819 28
25456 31816 31820 28
25457 31821 31822 28
25458 31821 31823 28
25459 31821 31824 28
25460 31821 31825 28
25461 31826 31827 28
25462 31826 31828 28
25463 31826 31829 28
25464 31826 31830 28
25465 31831 31832 28
25466 31831 31833 28
25467 31831 31834 28
25468 31831 31835 28
25469 31836 31837 28
25470 31836 31838 28
25471 31836 31839 28
25472 31836 31840 28
25473 31841 31842 28
25474 31841 31843 28
25475 31841 31844 28
25476 31841 31845 28
25477 31846 31847 28
25478 31846 31848 28
25479 31846 31849 28
25480 31846 31850 28
25481 31851 31852 28
25482 31851 31853 28
25483 31851 31854 28
25484 31851 31855 28
25485 31856 31857 28
25486 31856 31858 28
25487 31856 31859 28
25488 31856 31860 28
25489 31861 31862 28
25490 31861 31863 28
25491 31861 31864 28
25492 31861 31865 28
25493 31866 31867 28
25494 31866 31868 28
25495 31866 31869 28
25496 31866 31870 28
25497 31871 31872 28
25498 31871 31873 28
25499 31871 31874 28
25500 31871 31875 28
25501 31876 31877 28
25502 31876 31878 28
25503 31876 31879 28
25504 31876 31880 28
25505 31881 31882 28
25506 31881 31883 28
25507 31881 31884 28
25508 31881 31885 28
25509 31886 31887 28
25510 31886 31888 28
25511 31886 31889 28
25512 31886 31890 28
25513 31891 31892 28
25514 31891 31893 28
25515 31891 31894 28
25516 31891 31895 28
25517 31896 31897 28
25518 31896 31898 28
25519 31896 31899 28
25520 31896 31900 28
25521 31901 31902 28
25522 31901 31903 28
25523 31901 31904 28
25524 31901 31905 28
25525 31906 31907 28
25526 31906 31908 28
25527 31906 31909 28
25528 31906 31910 28
25529 31911 31912 28
25530 31911 31913 28
25531 31911 31914 28
25532 31911 31915 28
25533 31916 31917 28
25534 31916 31918 28
25535 31916 31919 28
25536 31916 31920 28
25537 31921 31922 28
25538 31921 31923 28
25539 31921 31924 28
25540 31921 31925 28
25541 31926 31927 28
25542 31926 31928 28
25543 31926 31929 28
25544 31926 31930 28
25545 31931 31932 28
25546 31931 31933 28
25547 31931 31934 28
25548 31931 31935 28
25549 31936 31937 28
25550 31936 31938 28
25551 31936 31939 28
25552 31936 31940 28
25553 31941 31942 28
25554 31941 31943 28
25555 31941 31944 28
25556 31941 31945 28
25557 31946 31947 28
25558 31946 31948 28
25559 31946 31949 28
25560 31946 31950 28
25561 31951 31952 28
25562 31951 31953 28
25563 31951 31954 28
25564 31951 31955 28
25565 31956 31957 28
25566 31956 31958 28
25567 31956 31959 28
25568 31956 31960 28
25569 31961 31962 28
25570 31961 31963 28
25571 31961 31964 28
25572 31961 31965 28
25573 31966 31967 28
25574 31966 31968 28
25575 31966 31969 28
25576 31966 31970 28
25577 31971 31972 28
25578 31971 31973 28
25579 31971 31974 28
25580 31971 31975 28
25581 31976 31977 28
25582 31976 31978 28
25583 31976 31979 28
25584 31976 31980 28
25585 31981 31982 28
25586 31981 31983 28
25587 31981 31984 28
25588 31981 31985 28
25589 31986 31987 28
25590 31986 31988 28
25591 31986 31989 28
25592 31986 31990 28
25593 31991 31992 28
25594 31991 31993 28
25595 31991 31994 28
25596 31991 31995 28
25597 31996 31997 28
25598 31996 31998 28
25599 31996 31999 28
25600 31996 32000 28
25601 32001 32002 28
25602 32001 32003 28
25603 32001 32004 28
25604 32001 32005 28
25605 32006 32007 28
25606 32006 32008 28
25607 32006 32009 28
25608 32006 32010 28
25609 32011 32012 28
25610 32011 32013 28
25611 32011 32014 28
25612 32011 32015 28
25613 32016 32017 28
25614 32016 32018 28
25615 32016 32019 28
25616 32016 32020 28
25617 32021 32022 28
25618 32021 32023 28
25619 32021 32024 28
25620 32021 32025 28
25621 32026 32027 28
25622 32026 32028 28
25623 32026 32029 28
25624 32026 32030 28
25625 32031 32032 28
25626 32031 32033 28
25627 32031 32034 28
25628 32031 32035 28
25629 32036 32037 28
25630 32036 32038 28
25631 32036 32039 28
25632 32036 32040 28
25633 32041 32042 28
25634 32041 32043 28
25635 32041 32044 28
25636 32041 32045 28
25637 32046 32047 28
25638 32046 32048 28
25639 32046 32049 28
25640 32046 32050 28
25641 32051 32052 28
25642 32051 32053 28
25643 32051 32054 28
25644 32051 32055 28
25645 32056 32057 28
25646 32056 32058 28
25647 32056 32059 28
25648 32056 32060 28
25649 32061 32062 28
25650 32061 32063 28
25651 32061 32064 28
25652 32061 32065 28
25653 32066 32067 28
25654 32066 32068 28
25655 32066 32069 28
25656 32066 32070 28
25657 32071 32072 28
25658 32071 32073 28
25659 32071 32074 28
25660 32071 32075 28
25661 32076 32077 28
25662 32076 32078 28
25663 32076 32079 28
25664 32076 32080 28
25665 32081 32082 28
25666 32081 32083 28
25667 32081 32084 28
25668 32081 32085 28
25669 32086 32087 28
25670 32086 32088 28
25671 32086 32089 28
25672 32086 32090 28
25673 32091 32092 28
25674 32091 32093 28
25675 32091 32094 28
25676 32091 32095 28
25677 32096 32097 28
25678 32096 32098 28
25679 32096 32099 28
25680 32096 32100 28
25681 32101 32102 28
25682 32101 32103 28
25683 32101 32104 28
25684 32101 32105 28
25685 32106 32107 28
25686 32106 32108 28
25687 32106 32109 28
25688 32106 32110 28
25689 32111 32112 28
25690 32111 32113 28
25691 32111 32114 28
25692 32111 32115 28
25693 32116 32117 28
25694 32116 32118 28
25695 32116 32119 28
25696 32116 32120 28
25697 32121 32122 28
25698 32121 32123 28
25699 32121 32124 28
25700 32121 32125 28
25701 32126 32127 28
25702 32126 32128 28
25703 32126 32129 28
25704 32126 32130 28
25705 32131 32132 28
25706 32131 32133 28
25707 32131 32134 28
25708 32131 32135 28
25709 32136 32137 28
25710 32136 32138 28
25711 32136 32139 28
25712 32136 32140 28
25713 32141 32142 28
25714 32141 32143 28
25715 32141 32144 28
25716 32141 32145 28
25717 32146 32147 28
25718 32146 32148 28
25719 32146 32149 28
25720 32146 32150 28
25721 32151 32152 28
25722 32151 32153 28
25723 32151 32154 28
25724 32151 32155 28
25725 32156 32157 28
25726 32156 32158 28
25727 32156 32159 28
25728 32156 32160 28
25729 32161 32162 28
25730 32161 32163 28
25731 32161 32164 28
25732 32161 32165 28
25733 32166 32167 28
25734 32166 32168 28
25735 32166 32169 28
25736 32166 32170 28
25737 32171 32172 28
25738 32171 32173 28
25739 32171 32174 28
25740 32171 32175 28
25741 32176 32177 28
25742 32176 32178 28
25743 32176 32179 28
25744 32176 32180 28
25745 32181 32182 28
25746 32181 32183 28
25747 32181 32184 28
25748 32181 32185 28
25749 32186 32187 28
25750 32186 32188 28
25751 32186 32189 28
25752 32186 32190 28
25753 32191 32192 28
25754 32191 32193 28
25755 32191 32194 28
25756 32191 32195 28
25757 32196 32197 28
25758 32196 32198 28
25759 32196 32199 28
25760 32196 32200 28
25761 32201 32202 28
25762 32201 32203 28
25763 32201 32204 28
25764 32201 32205 28
25765 32206 32207 28
25766 32206 32208 28
25767 32206 32209 28
25768 32206 32210 28
25769 32211 32212 28
25770 32211 32213 28
25771 32211 32214 28
25772 32211 32215 28
25773 32216 32217 28
25774 32216 32218 28
25775 32216 32219 28
25776 32216 32220 28
25777 32221 32222 28
25778 32221 32223 28
25779 32221 32224 28
25780 32221 32225 28
25781 32226 32227 28
25782 32226 32228 28
25783 32226 32229 28
25784 32226 32230 28
25785 32231 32232 28
25786 32231 32233 28
25787 32231 32234 28
25788 32231 32235 28
25789 32236 32237 28
25790 32236 32238 28
25791 32236 32239 28
25792 32236 32240 28
25793 32241 32242 28
25794 32241 32243 28
25795 32241 32244 28
25796 32241 32245 28
25797 32246 32247 28
25798 32246 32248 28
25799 32246 32249 28
25800 32246 32250 28
25801 32251 32252 28
25802 32251 32253 28
25803 32251 32254 28
25804 32251 32255 28
25805 32256 32257 28
25806 32256 32258 28
25807 32256 32259 28
25808 32256 32260 28
25809 32261 32262 28
25810 32261 32263 28
25811 32261 32264 28
25812 32261 32265 28
25813 32266 32267 28
25814 32266 32268 28
25815 32266 32269 28
25816 32266 32270 28
25817 32271 32272 28
25818 32271 32273 28
25819 32271 32274 28
25820 32271 32275 28
25821 32276 32277 28
25822 32276 32278 28
25823 32276 32279 28
25824 32276 32280 28
25825 32281 32282 28
25826 32281 32283 28
25827 32281 32284 28
25828 32281 32285 28
25829 32286 32287 28
25830 32286 32288 28
25831 32286 32289 28
25832 32286 32290 28
25833 32291 32292 28
25834 32291 32293 28
25835 32291 32294 28
25836 32291 32295 28
25837 32296 32297 28
25838 32296 32298 28
25839 32296 32299 28
25840 32296 32300 28
25841 32301 32302 28
25842 32301 32303 28
25843 32301 32304 28
25844 32301 32305 28
25845 32306 32307 28
25846 32306 32308 28
25847 32306 32309 28
25848 32306 32310 28
25849 32311 32312 28
25850 32311 32313 28
25851 32311 32314 28
25852 32311 32315 28
25853 32316 32317 28
25854 32316 32318 28
25855 32316 32319 28
25856 32316 32320 28
25857 32321 32322 28
25858 32321 32323 28
25859 32321 32324 28
25860 32321 32325 28
25861 32326 32327 28
25862 32326 32328 28
25863 32326 32329 28
25864 32326 32330 28
25865 32331 32332 28
25866 32331 32333 28
25867 32331 32334 28
25868 32331 32335 28
25869 32336 32337 28
25870 32336 32338 28
25871 32336 32339 28
25872 32336 32340 28
25873 32341 32342 28
25874 32341 32343 28
25875 32341 32344 28
25876 32341 32345 28
25877 32346 32347 28
25878 32346 32348 28
25879 32346 32349 28
25880 32346 32350 28
25881 32351 32352 28
25882 32351 32353 28
25883 32351 32354 28
25884 32351 32355 28
25885 32356 32357 28
25886 32356 32358 28
25887 32356 32359 28
25888 32356 32360 28
25889 32361 32362 28
25890 32361 32363 28
25891 32361 32364 28
25892 32361 32365 28
25893 32366 32367 28
25894 32366 32368 28
25895 32366 32369 28
25896 32366 32370 28
25897 32371 32372 28
25898 32371 32373 28
25899 32371 32374 28
25900 32371 32375 28
25901 32376 32377 28
25902 32376 32378 28
25903 32376 32379 28
25904 32376 32380 28
25905 32381 32382 28
25906 32381 32383 28
25907 32381 32384 28
25908 32381 32385 28
25909 32386 32387 28
25910 32386 32388 28
25911 32386 32389 28
25912 32386 32390 28
25913 32391 32392 28
25914 32391 32393 28
25915 32391 32394 28
25916 32391 32395 28
25917 32396 32397 28
25918 32396 32398 28
25919 32396 32399 28
25920 32396 32400 28
25921 32401 32402 28
25922 32401 32403 28
25923 32401 32404 28
25924 32401 32405 28
25925 32406 32407 28
25926 32406 32408 28
25927 32406 32409 28
25928 32406 32410 28
25929 32411 32412 28
25930 32411 32413 28
25931 32411 32414 28
25932 32411 32415 28
25933 32416 32417 28
25934 32416 32418 28
25935 32416 32419 28
25936 32416 32420 28
25937 32421 32422 28
25938 32421 32423 28
25939 32421 32424 28
25940 32421 32425 28
25941 32426 32427 28
25942 32426 32428 28
25943 32426 32429 28
25944 32426 32430 28
25945 32431 32432 28
25946 32431 32433 28
25947 32431 32434 28
25948 32431 32435 28
25949 32436 32437 28
25950 32436 32438 28
25951 32436 32439 28
25952 32436 32440 28
25953 32441 32442 28
25954 32441 32443 28
25955 32441 32444 28
25956 32441 32445 28
25957 32446 32447 28
25958 32446 32448 28
25959 32446 32449 28
25960 32446 32450 28
25961 32451 32452 28
25962 32451 32453 28
25963 32451 32454 28
25964 32451 32455 28
25965 32456 32457 28
25966 32456 32458 28
25967 32456 32459 28
25968 32456 32460 28
25969 32461 32462 28
25970 32461 32463 28
25971 32461 32464 28
25972 32461 32465 28
25973 32466 32467 28
25974 32466 32468 28
25975 32466 32469 28
25976 32466 32470 28
25977 32471 32472 28
25978 32471 32473 28
25979 32471 32474 28
25980 32471 32475 28
25981 32476 32477 28
25982 32476 32478 28
25983 32476 32479 28
25984 32476 32480 28
25985 32481 32482 28
25986 32481 32483 28
25987 32481 32484 28
25988 32481 32485 28
25989 32486 32487 28
25990 32486 32488 28
25991 32486 32489 28
25992 32486 32490 28
25993 32491 32492 28
25994 32491 32493 28
25995 32491 32494 28
25996 32491 32495 28
25997 32496 32497 28
25998 32496 32498 28
25999 32496 32499 28
26000 32496 32500 28
26001 32501 32502 28
26002 32501 32503 28
26003 32501 32504 28
26004 32501 32505 28
26005 32506 32507 28
26006 32506 32508 28
26007 32506 32509 28
26008 32506 32510 28
26009 32511 32512 28
26010 32511 32513 28
26011 32511 32514 28
26012 32511 32515 28
26013 32516 32517 28
26014 32516 32518 28
26015 32516 32519 28
26016 32516 32520 28
26017 32521 32522 28
26018 32521 32523 28
26019 32521 32524 28
26020 32521 32525 28
26021 32526 32527 28
26022 32526 32528 28
26023 32526 32529 28
26024 32526 32530 28
26025 32531 32532 28
26026 32531 32533 28
26027 32531 32534 28
26028 32531 32535 28
26029 32536 32537 28
26030 32536 32538 28
26031 32536 32539 28
26032 32536 32540 28
26033 32541 32542 28
26034 32541 32543 28
26035 32541 32544 28
26036 32541 32545 28
26037 32546 32547 28
26038 32546 32548 28
26039 32546 32549 28
26040 32546 32550 28
26041 32551 32552 28
26042 32551 32553 28
26043 32551 32554 28
26044 32551 32555 28
26045 32556 32557 28
26046 32556 32558 28
26047 32556 32559 28
26048 32556 32560 28
26049 32561 32562 28
26050 32561 32563 28
26051 32561 32564 28
26052 32561 32565 28
26053 32566 32567 28
26054 32566 32568 28
26055 32566 32569 28
26056 32566 32570 28
26057 32571 32572 28
26058 32571 32573 28
26059 32571 32574 28
26060 32571 32575 28
26061 32576 32577 28
26062 32576 32578 28
26063 32576 32579 28
26064 32576 32580 28
26065 32581 32582 28
26066 32581 32583 28
26067 32581 32584 28
26068 32581 32585 28
26069 32586 32587 28
26070 32586 32588 28
26071 32586 32589 28
26072 32586 32590 28
26073 32591 32592 28
26074 32591 32593 28
26075 32591 32594 28
26076 32591 32595 28
26077 32596 32597 28
26078 32596 32598 28
26079 32596 32599 28
26080 32596 32600 28
26081 32601 32602 28
26082 32601 32603 28
26083 32601 32604 28
26084 32601 32605 28
26085 32606 32607 28
26086 32606 32608 28
26087 32606 32609 28
26088 32606 32610 28
26089 32611 32612 28
26090 32611 32613 28
26091 32611 32614 28
26092 32611 32615 28
26093 32616 32617 28
26094 32616 32618 28
26095 32616 32619 28
26096 32616 32620 28
26097 32621 32622 28
26098 32621 32623 28
26099 32621 32624 28
26100 32621 32625 28
26101 32626 32627 28
26102 32626 32628 28
26103 32626 32629 28
26104 32626 32630 28
26105 32631 32632 28
26106 32631 32633 28
26107 32631 32634 28
26108 32631 32635 28
26109 32636 32637 28
26110 32636 32638 28
26111 32636 32639 28
26112 32636 32640 28
26113 32641 32642 28
26114 32641 32643 28
26115 32641 32644 28
26116 32641 32645 28
26117 32646 32647 28
26118 32646 32648 28
26119 32646 32649 28
26120 32646 32650 28
26121 32651 32652 28
26122 32651 32653 28
26123 32651 32654 28
26124 32651 32655 28
26125 32656 32657 28
26126 32656 32658 28
26127 32656 32659 28
26128 32656 32660 28
26129 32661 32662 28
26130 32661 32663 28
26131 32661 32664 28
26132 32661 32665 28
26133 32666 32667 28
26134 32666 32668 28
26135 32666 32669 28
26136 32666 32670 28
26137 32671 32672 28
26138 32671 32673 28
26139 32671 32674 28
26140 32671 32675 28
26141 32676 32677 28
26142 32676 32678 28
26143 32676 32679 28
26144 32676 32680 28
26145 32681 32682 28
26146 32681 32683 28
26147 32681 32684 28
26148 32681 32685 28
26149 32686 32687 28
26150 32686 32688 28
26151 32686 32689 28
26152 32686 32690 28
26153 32691 32692 28
26154 32691 32693 28
26155 32691 32694 28
26156 32691 32695 28
26157 32696 32697 28
26158 32696 32698 28
26159 32696 32699 28
26160 32696 32700 28
26161 32701 32702 28
26162 32701 32703 28
26163 32701 32704 28
26164 32701 32705 28
26165 32706 32707 28
26166 32706 32708 28
26167 32706 32709 28
26168 32706 32710 28
26169 32711 32712 28
26170 32711 32713 28
26171 32711 32714 28
26172 32711 32715 28
26173 32716 32717 28
26174 32716 32718 28
26175 32716 32719 28
26176 32716 32720 28
26177 32721 32722 28
26178 32721 32723 28
26179 32721 32724 28
26180 32721 32725 28
26181 32726 32727 28
26182 32726 32728 28
26183 32726 32729 28
26184 32726 32730 28
26185 32731 32732 28
26186 32731 32733 28
26187 32731 32734 28
26188 32731 32735 28
26189 32736 32737 28
26190 32736 32738 28
26191 32736 32739 28
26192 32736 32740 28
26193 32741 32742 28
26194 32741 32743 28
26195 32741 32744 28
26196 32741 32745 28
26197 32746 32747 28
26198 32746 32748 28
26199 32746 32749 28
26200 32746 32750 28
26201 32751 32752 28
26202 32751 32753 28
26203 32751 32754 28
26204 32751 32755 28
26205 32756 32757 28
26206 32756 32758 28
26207 32756 32759 28
26208 32756 32760 28
26209 32761 32762 28
26210 32761 32763 28
26211 32761 32764 28
26212 32761 32765 28
26213 32766 32767 28
26214 32766 32768 28
26215 32766 32769 28
26216 32766 32770 28
26217 32771 32772 28
26218 32771 32773 28
26219 32771 32774 28
26220 32771 32775 28
26221 32776 32777 28
26222 32776 32778 28
26223 32776 32779 28
26224 32776 32780 28
26225 32781 32782 28
26226 32781 32783 28
26227 32781 32784 28
26228 32781 32785 28
26229 32786 32787 28
26230 32786 32788 28
26231 32786 32789 28
26232 32786 32790 28
26233 32791 32792 28
26234 32791 32793 28
26235 32791 32794 28
26236 32791 32795 28
26237 32796 32797 28
26238 32796 32798 28
26239 32796 32799 28
26240 32796 32800 28
26241 32801 32802 28
26242 32801 32803 28
26243 32801 32804 28
26244 32801 32805 28
26245 32806 32807 28
26246 32806 32808 28
26247 32806 32809 28
26248 32806 32810 28
26249 32811 32812 28
26250 32811 32813 28
26251 32811 32814 28
26252 32811 32815 28
26253 32816 32817 28
26254 32816 32818 28
26255 32816 32819 28
26256 32816 32820 28
26257 32821 32822 28
26258 32821 32823 28
26259 32821 32824 28
26260 32821 32825 28
26261 32826 32827 28
26262 32826 32828 28
26263 32826 32829 28
26264 32826 32830 28
26265 32831 32832 28
26266 32831 32833 28
26267 32831 32834 28
26268 32831 32835 28
26269 32836 32837 28
26270 32836 32838 28
26271 32836 32839 28
26272 32836 32840 28
26273 32841 32842 28
26274 32841 32843 28
26275 32841 32844 28
26276 32841 32845 28
26277 32846 32847 28
26278 32846 32848 28
26279 32846 32849 28
26280 32846 32850 28
26281 32851 32852 28
26282 32851 32853 28
26283 32851 32854 28
26284 32851 32855 28
26285 32856 32857 28
26286 32856 32858 28
26287 32856 32859 28
26288 32856 32860 28
26289 32861 32862 28
26290 32861 32863 28
26291 32861 32864 28
26292 32861 32865 28
26293 32866 32867 28
26294 32866 32868 28
26295 32866 32869 28
26296 32866 32870 28
26297 32871 32872 28
26298 32871 32873 28
26299 32871 32874 28
26300 32871 32875 28
26301 32876 32877 28
26302 32876 32878 28
26303 32876 32879 28
26304 32876 32880 28
26305 32881 32882 28
26306 32881 32883 28
26307 32881 32884 28
26308 32881 32885 28
26309 32886 32887 28
26310 32886 32888 28
26311 32886 32889 28
26312 32886 32890 28
26313 32891 32892 28
26314 32891 32893 28
26315 32891 32894 28
26316 32891 32895 28
26317 32896 32897 28
26318 32896 32898 28
26319 32896 32899 28
26320 32896 32900 28
26321 32901 32902 28
26322 32901 32903 28
26323 32901 32904 28
26324 32901 32905 28
26325 32906 32907 28
26326 32906 32908 28
26327 32906 32909 28
26328 32906 32910 28
26329 32911 32912 28
26330 32911 32913 28
26331 32911 32914 28
26332 32911 32915 28
26333 32916 32917 28
26334 32916 32918 28
26335 32916 32919 28
26336 32916 32920 28
26337 32921 32922 28
26338 32921 32923 28
26339 32921 32924 28
26340 32921 32925 28
26341 32926 32927 28
26342 32926 32928 28
26343 32926 32929 28
26344 32926 32930 28
26345 32931 32932 28
26346 32931 32933 28
26347 32931 32934 28
26348 32931 32935 28
26349 32936 32937 28
26350 32936 32938 28
26351 32936 32939 28
26352 32936 32940 28
26353 32941 32942 28
26354 32941 32943 28
26355 32941 32944 28
26356 32941 32945 28
26357 32946 32947 28
26358 32946 32948 28
26359 32946 32949 28
26360 32946 32950 28
26361 32951 32952 28
26362 32951 32953 28
26363 32951 32954 28
26364 32951 32955 28
26365 32956 32957 28
26366 32956 32958 28
26367 32956 32959 28
26368 32956 32960 28
26369 32961 32962 28
26370 32961 32963 28
26371 32961 32964 28
26372 32961 32965 28
26373 32966 32967 28
26374 32966 32968 28
26375 32966 32969 28
26376 32966 32970 28
26377 32971 32972 28
26378 32971 32973 28
26379 32971 32974 28
26380 32971 32975 28
26381 32976 32977 28
26382 32976 32978 28
26383 32976 32979 28
26384 32976 32980 28
26385 32981 32982 28
26386 32981 32983 28
26387 32981 32984 28
26388 32981 32985 28
26389 32986 32987 28
26390 32986 32988 28
26391 32986 32989 28
26392 32986 32990 28
26393 32991 32992 28
26394 32991 32993 28
26395 32991 32994 28
26396 32991 32995 28
26397 32996 32997 28
26398 32996 32998 28
26399 32996 32999 28
26400 32996 33000 28
26401 33001 33002 28
26402 33001 33003 28
26403 33001 33004 28
26404 33001 33005 28
26405 33006 33007 28
26406 33006 33008 28
26407 33006 33009 28
26408 33006 33010 28
26409 33011 33012 28
26410 33011 33013 28
26411 33011 33014 28
26412 33011 33015 28
26413 33016 33017 28
26414 33016 33018 28
26415 33016 33019 28
26416 33016 33020 28
26417 33021 33022 28
26418 33021 33023 28
26419 33021 33024 28
26420 33021 33025 28
26421 33026 33027 28
26422 33026 33028 28
26423 33026 33029 28
26424 33026 33030 28
26425 33031 33032 28
26426 33031 33033 28
26427 33031 33034 28
26428 33031 33035 28
26429 33036 33037 28
26430 33036 33038 28
26431 33036 33039 28
26432 33036 33040 28
26433 33041 33042 28
26434 33041 33043 28
26435 33041 33044 28
26436 33041 33045 28
26437 33046 33047 28
26438 33046 33048 28
26439 33046 33049 28
26440 33046 33050 28
26441 33051 33052 28
26442 33051 33053 28
26443 33051 33054 28
26444 33051 33055 28
26445 33056 33057 28
26446 33056 33058 28
26447 33056 33059 28
26448 33056 33060 28
26449 33061 33062 28
26450 33061 33063 28
26451 33061 33064 28
26452 33061 33065 28
26453 33066 33067 28
26454 33066 33068 28
26455 33066 33069 28
26456 33066 33070 28
26457 33071 33072 28
26458 33071 33073 28
26459 33071 33074 28
26460 33071 33075 28
26461 33076 33077 28
26462 33076 33078 28
26463 33076 33079 28
26464 33076 33080 28
26465 33081 33082 28
26466 33081 33083 28
26467 33081 33084 28
26468 33081 33085 28
26469 33086 33087 28
26470 33086 33088 28
26471 33086 33089 28
26472 33086 33090 28
26473 33091 33092 28
26474 33091 33093 28
26475 33091 33094 28
26476 33091 33095 28
26477 33096 33097 28
26478 33096 33098 28
26479 33096 33099 28
26480 33096 33100 28
26481 33101 33102 28
26482 33101 33103 28
26483 33101 33104 28
26484 33101 33105 28
26485 33106 33107 28
26486 33106 33108 28
26487 33106 33109 28
26488 33106 33110 28
26489 33111 33112 28
26490 33111 33113 28
26491 33111 33114 28
26492 33111 33115 28
26493 33116 33117 28
26494 33116 33118 28
26495 33116 33119 28
26496 33116 33120 28
26497 33121 33122 28
26498 33121 33123 28
26499 33121 33124 28
26500 33121 33125 28
26501 33126 33127 28
26502 33126 33128 28
26503 33126 33129 28
26504 33126 33130 28
26505 33131 33132 28
26506 33131 33133 28
26507 33131 33134 28
26508 33131 33135 28
26509 33136 33137 28
26510 33136 33138 28
26511 33136 33139 28
26512 33136 33140 28
26513 33141 33142 28
26514 33141 33143 28
26515 33141 33144 28
26516 33141 33145 28
26517 33146 33147 28
26518 33146 33148 28
26519 33146 33149 28
26520 33146 33150 28
26521 33151 33152 28
26522 33151 33153 28
26523 33151 33154 28
26524 33151 33155 28
26525 33156 33157 28
26526 33156 33158 28
26527 33156 33159 28
26528 33156 33160 28
26529 33161 33162 28
26530 33161 33163 28
26531 33161 33164 28
26532 33161 33165 28
26533 33166 33167 28
26534 33166 33168 28
26535 33166 33169 28
26536 33166 33170 28
26537 33171 33172 28
26538 33171 33173 28
26539 33171 33174 28
26540 33171 33175 28
26541 33176 33177 28
26542 33176 33178 28
26543 33176 33179 28
26544 33176 33180 28
26545 33181 33182 28
26546 33181 33183 28
26547 33181 33184 28
26548 33181 33185 28
26549 33186 33187 28
26550 33186 33188 28
26551 33186 33189 28
26552 33186 33190 28
26553 33191 33192 28
26554 33191 33193 28
26555 33191 33194 28
26556 33191 33195 28
26557 33196 33197 28
26558 33196 33198 28
26559 33196 33199 28
26560 33196 33200 28
26561 33201 33202 28
26562 33201 33203 28
26563 33201 33204 28
26564 33201 33205 28
26565 33206 33207 28
26566 33206 33208 28
26567 33206 33209 28
26568 33206 33210 28
26569 33211 33212 28
26570 33211 33213 28
26571 33211 33214 28
26572 33211 33215 28
26573 33216 33217 28
26574 33216 33218 28
26575 33216 33219 28
26576 33216 33220 28
26577 33221 33222 28
26578 33221 33223 28
26579 33221 33224 28
26580 33221 33225 28
26581 33226 33227 28
26582 33226 33228 28
26583 33226 33229 28
26584 33226 33230 28
26585 33231 33232 28
26586 33231 33233 28
26587 33231 33234 28
26588 33231 33235 28
26589 33236 33237 28
26590 33236 33238 28
26591 33236 33239 28
26592 33236 33240 28
26593 33241 33242 28
26594 33241 33243 28
26595 33241 33244 28
26596 33241 33245 28
26597 33246 33247 28
26598 33246 33248 28
26599 33246 33249 28
26600 33246 33250 28
26601 33251 33252 28
26602 33251 33253 28
26603 33251 33254 28
26604 33251 33255 28
26605 33256 33257 28
26606 33256 33258 28
26607 33256 33259 28
26608 33256 33260 28
26609 33261 33262 28
26610 33261 33263 28
26611 33261 33264 28
26612 33261 33265 28
26613 33266 33267 28
26614 33266 33268 28
26615 33266 33269 28
26616 33266 33270 28
26617 33271 33272 28
26618 33271 33273 28
26619 33271 33274 28
26620 33271 33275 28
26621 33276 33277 28
26622 33276 33278 28
26623 33276 33279 28
26624 33276 33280 28
26625 33281 33282 28
26626 33281 33283 28
26627 33281 33284 28
26628 33281 33285 28
26629 33286 33287 28
26630 33286 33288 28
26631 33286 33289 28
26632 33286 33290 28
26633 33291 33292 28
26634 33291 33293 28
26635 33291 33294 28
26636 33291 33295 28
26637 33296 33297 28
26638 33296 33298 28
26639 33296 33299 28
26640 33296 33300 28
26641 33301 33302 28
26642 33301 33303 28
26643 33301 33304 28
26644 33301 33305 28
26645 33306 33307 28
26646 33306 33308 28
26647 33306 33309 28
26648 33306 33310 28
26649 33311 33312 28
26650 33311 33313 28
26651 33311 33314 28
26652 33311 33315 28
26653 33316 33317 28
26654 33316 33318 28
26655 33316 33319 28
26656 33316 33320 28
26657 33321 33322 28
26658 33321 33323 28
26659 33321 33324 28
26660 33321 33325 28
26661 33326 33327 28
26662 33326 33328 28
26663 33326 33329 28
26664 33326 33330 28
26665 33331 33332 28
26666 33331 33333 28
26667 33331 33334 28
26668 33331 33335 28
26669 33336 33337 28
26670 33336 33338 28
26671 33336 33339 28
26672 33336 33340 28
26673 33341 33342 28
26674 33341 33343 28
26675 33341 33344 28
26676 33341 33345 28
26677 33346 33347 28
26678 33346 33348 28
26679 33346 33349 28
26680 33346 33350 28
26681 33351 33352 28
26682 33351 33353 28
26683 33351 33354 28
26684 33351 33355 28
26685 33356 33357 28
26686 33356 33358 28
26687 33356 33359 28
26688 33356 33360 28
26689 33361 33362 28
26690 33361 33363 28
26691 33361 33364 28
26692 33361 33365 28
26693 33366 33367 28
26694 33366 33368 28
26695 33366 33369 28
26696 33366 33370 28
26697 33371 33372 28
26698 33371 33373 28
26699 33371 33374 28
26700 33371 33375 28
26701 33376 33377 28
26702 33376 33378 28
26703 33376 33379 28
26704 33376 33380 28
26705 33381 33382 28
26706 33381 33383 28
26707 33381 33384 28
26708 33381 33385 28
26709 33386 33387 28
26710 33386 33388 28
26711 33386 33389 28
26712 33386 33390 28
26713 33391 33392 28
26714 33391 33393 28
26715 33391 33394 28
26716 33391 33395 28
26717 33396 33397 28
26718 33396 33398 28
26719 33396 33399 28
26720 33396 33400 28
26721 33401 33402 28
26722 33401 33403 28
26723 33401 33404 28
26724 33401 33405 28
26725 33406 33407 28
26726 33406 33408 28
26727 33406 33409 28
26728 33406 33410 28
26729 33411 33412 28
26730 33411 33413 28
26731 33411 33414 28
26732 33411 33415 28
26733 33416 33417 28
26734 33416 33418 28
26735 33416 33419 28
26736 33416 33420 28
26737 33421 33422 28
26738 33421 33423 28
26739 33421 33424 28
26740 33421 33425 28
26741 33426 33427 28
26742 33426 33428 28
26743 33426 33429 28
26744 33426 33430 28
26745 33431 33432 28
26746 33431 33433 28
26747 33431 33434 28
26748 33431 33435 28
26749 33436 33437 28
26750 33436 33438 28
26751 33436 33439 28
26752 33436 33440 28
26753 33441 33442 28
26754 33441 33443 28
26755 33441 33444 28
26756 33441 33445 28
26757 33446 33447 28
26758 33446 33448 28
26759 33446 33449 28
26760 33446 33450 28
26761 33451 33452 28
26762 33451 33453 28
26763 33451 33454 28
26764 33451 33455 28
26765 33456 33457 28
26766 33456 33458 28
26767 33456 33459 28
26768 33456 33460 28
26769 33461 33462 28
26770 33461 33463 28
26771 33461 33464 28
26772 33461 33465 28
26773 33466 33467 28
26774 33466 33468 28
26775 33466 33469 28
26776 33466 33470 28
26777 33471 33472 28
26778 33471 33473 28
26779 33471 33474 28
26780 33471 33475 28
26781 33476 33477 28
26782 33476 33478 28
26783 33476 33479 28
26784 33476 33480 28
26785 33481 33482 28
26786 33481 33483 28
26787 33481 33484 28
26788 33481 33485 28
26789 33486 33487 28
26790 33486 33488 28
26791 33486 33489 28
26792 33486 33490 28
26793 33491 33492 28
26794 33491 33493 28
26795 33491 33494 28
26796 33491 33495 28
26797 33496 33497 28
26798 33496 33498 28
26799 33496 33499 28
26800 33496 33500 28
26801 33501 33502 28
26802 33501 33503 28
26803 33501 33504 28
26804 33501 33505 28
26805 33506 33507 28
26806 33506 33508 28
26807 33506 33509 28
26808 33506 33510 28
26809 33511 33512 28
26810 33511 33513 28
26811 33511 33514 28
26812 33511 33515 28
26813 33516 33517 28
26814 33516 33518 28
26815 33516 33519 28
26816 33516 33520 28
26817 33521 33522 28
26818 33521 33523 28
26819 33521 33524 28
26820 33521 33525 28
26821 33526 33527 28
26822 33526 33528 28
26823 33526 33529 28
26824 33526 33530 28
26825 33531 33532 28
26826 33531 33533 28
26827 33531 33534 28
26828 33531 33535 28
26829 33536 33537 28
26830 33536 33538 28
26831 33536 33539 28
26832 33536 33540 28
26833 33541 33542 28
26834 33541 33543 28
26835 33541 33544 28
26836 33541 33545 28
26837 33546 33547 28
26838 33546 33548 28
26839 33546 33549 28
26840 33546 33550 28
26841 33551 33552 28
26842 33551 33553 28
26843 33551 33554 28
26844 33551 33555 28
26845 33556 33557 28
26846 33556 33558 28
26847 33556 33559 28
26848 33556 33560 28
26849 33561 33562 28
26850 33561 33563 28
26851 33561 33564 28
26852 33561 33565 28
26853 33566 33567 28
26854 33566 33568 28
26855 33566 33569 28
26856 33566 33570 28
26857 33571 33572 28
26858 33571 33573 28
26859 33571 33574 28
26860 33571 33575 28
26861 33576 33577 28
26862 33576 33578 28
26863 33576 33579 28
26864 33576 33580 28
26865 33581 33582 28
26866 33581 33583 28
26867 33581 33584 28
26868 33581 33585 28
26869 33586 33587 28
26870 33586 33588 28
26871 33586 33589 28
26872 33586 33590 28
26873 33591 33592 28
26874 33591 33593 28
26875 33591 33594 28
26876 33591 33595 28
26877 33596 33597 28
26878 33596 33598 28
26879 33596 33599 28
26880 33596 33600 28
26881 33601 33602 28
26882 33601 33603 28
26883 33601 33604 28
26884 33601 33605 28
26885 33606 33607 28
26886 33606 33608 28
26887 33606 33609 28
26888 33606 33610 28
26889 33611 33612 28
26890 33611 33613 28
26891 33611 33614 28
26892 33611 33615 28
26893 33616 33617 28
26894 33616 33618 28
26895 33616 33619 28
26896 33616 33620 28
26897 33621 33622 28
26898 33621 33623 28
26899 33621 33624 28
26900 33621 33625 28
26901 33626 33627 28
26902 33626 33628 28
26903 33626 33629 28
26904 33626 33630 28
26905 33631 33632 28
26906 33631 33633 28
26907 33631 33634 28
26908 33631 33635 28
26909 33636 33637 28
26910 33636 33638 28
26911 33636 33639 28
26912 33636 33640 28
26913 33641 33642 28
26914 33641 33643 28
26915 33641 33644 28
26916 33641 33645 28
26917 33646 33647 28
26918 33646 33648 28
26919 33646 33649 28
26920 33646 33650 28
26921 33651 33652 28
26922 33651 33653 28
26923 33651 33654 28
26924 33651 33655 28
26925 33656 33657 28
26926 33656 33658 28
26927 33656 33659 28
26928 33656 33660 28
26929 33661 33662 28
26930 33661 33663 28
26931 33661 33664 28
26932 33661 33665 28
26933 33666 33667 28
26934 33666 33668 28
26935 33666 33669 28
26936 33666 33670 28
26937 33671 33672 28
26938 33671 33673 28
26939 33671 33674 28
26940 33671 33675 28
26941 33676 33677 28
26942 33676 33678 28
26943 33676 33679 28
26944 33676 33680 28
26945 33681 33682 28
26946 33681 33683 28
26947 33681 33684 28
26948 33681 33685 28
26949 33686 33687 28
26950 33686 33688 28
26951 33686 33689 28
26952 33686 33690 28
26953 33691 33692 28
26954 33691 33693 28
26955 33691 33694 28
26956 33691 33695 28
26957 33696 33697 28
26958 33696 33698 28
26959 33696 33699 28
26960 33696 33700 28
26961 33701 33702 28
26962 33701 33703 28
26963 33701 33704 28
26964 33701 33705 28
26965 33706 33707 28
26966 33706 33708 28
26967 33706 33709 28
26968 33706 33710 28
26969 33711 33712 28
26970 33711 33713 28
26971 33711 33714 28
26972 33711 33715 28
26973 33716 33717 28
26974 33716 33718 28
26975 33716 33719 28
26976 33716 33720 28
26977 33721 33722 28
26978 33721 33723 28
26979 33721 33724 28
26980 33721 33725 28
26981 33726 33727 28
26982 33726 33728 28
26983 33726 33729 28
26984 33726 33730 28
26985 33731 33732 28
26986 33731 33733 28
26987 33731 33734 28
26988 33731 33735 28
26989 33736 33737 28
26990 33736 33738 28
26991 33736 33739 28
26992 33736 33740 28
26993 33741 33742 28
26994 33741 33743 28
26995 33741 33744 28
26996 33741 33745 28
26997 33746 33747 28
26998 33746 33748 28
26999 33746 33749 28
27000 33746 33750 28
27001 33751 33752 28
27002 33751 33753 28
27003 33751 33754 28
27004 33751 33755 28
27005 33756 33757 28
27006 33756 33758 28
27007 33756 33759 28
27008 33756 33760 28
27009 33761 33762 28
27010 33761 33763 28
27011 33761 33764 28
27012 33761 33765 28
27013 33766 33767 28
27014 33766 33768 28
27015 33766 33769 28
27016 33766 33770 28
27017 33771 33772 28
27018 33771 33773 28
27019 33771 33774 28
27020 33771 33775 28
27021 33776 33777 28
27022 33776 33778 28
27023 33776 33779 28
27024 33776 33780 28
27025 33781 33782 28
27026 33781 33783 28
27027 33781 33784 28
27028 33781 33785 28
27029 33786 33787 28
27030 33786 33788 28
27031 33786 33789 28
27032 33786 33790 28
27033 33791 33792 28
27034 33791 33793 28
27035 33791 33794 28
27036 33791 33795 28
27037 33796 33797 28
27038 33796 33798 28
27039 33796 33799 28
27040 33796 33800 28
27041 33801 33802 28
27042 33801 33803 28
27043 33801 33804 28
27044 33801 33805 28
27045 33806 33807 28
27046 33806 33808 28
27047 33806 33809 28
27048 33806 33810 28
27049 33811 33812 28
27050 33811 33813 28
27051 33811 33814 28
27052 33811 33815 28
27053 33816 33817 28
27054 33816 33818 28
27055 33816 33819 28
27056 33816 33820 28
27057 33821 33822 28
27058 33821 33823 28
27059 33821 33824 28
27060 33821 33825 28
27061 33826 33827 28
27062 33826 33828 28
27063 33826 33829 28
27064 33826 33830 28
27065 33831 33832 28
27066 33831 33833 28
27067 33831 33834 28
27068 33831 33835 28
27069 33836 33837 28
27070 33836 33838 28
27071 33836 33839 28
27072 33836 33840 28
27073 33841 33842 28
27074 33841 33843 28
27075 33841 33844 28
27076 33841 33845 28
27077 33846 33847 28
27078 33846 33848 28
27079 33846 33849 28
27080 33846 33850 28
27081 33851 33852 28
27082 33851 33853 28
27083 33851 33854 28
27084 33851 33855 28
27085 33856 33857 28
27086 33856 33858 28
27087 33856 33859 28
27088 33856 33860 28
27089 33861 33862 28
27090 33861 33863 28
27091 33861 33864 28
27092 33861 33865 28
27093 33866 33867 28
27094 33866 33868 28
27095 33866 33869 28
27096 33866 33870 28
27097 33871 33872 28
27098 33871 33873 28
27099 33871 33874 28
27100 33871 33875 28
27101 33876 33877 28
27102 33876 33878 28
27103 33876 33879 28
27104 33876 33880 28
27105 33881 33882 28
27106 33881 33883 28
27107 33881 33884 28
27108 33881 33885 28
27109 33886 33887 28
27110 33886 33888 28
27111 33886 33889 28
27112 33886 33890 28
27113 33891 33892 28
27114 33891 33893 28
27115 33891 33894 28
27116 33891 33895 28
27117 33896 33897 28
27118 33896 33898 28
27119 33896 33899 28
27120 33896 33900 28
27121 33901 33902 28
27122 33901 33903 28
27123 33901 33904 28
27124 33901 33905 28
27125 33906 33907 28
27126 33906 33908 28
27127 33906 33909 28
27128 33906 33910 28
27129 33911 33912 28
27130 33911 33913 28
27131 33911 33914 28
27132 33911 33915 28
27133 33916 33917 28
27134 33916 33918 28
27135 33916 33919 28
27136 33916 33920 28
27137 33921 33922 28
27138 33921 33923 28
27139 33921 33924 28
27140 33921 33925 28
27141 33926 33927 28
27142 33926 33928 28
27143 33926 33929 28
27144 33926 33930 28
27145 33931 33932 28
27146 33931 33933 28
27147 33931 33934 28
27148 33931 33935 28
27149 33936 33937 28
27150 33936 33938 28
27151 33936 33939 28
27152 33936 33940 28
27153 33941 33942 28
27154 33941 33943 28
27155 33941 33944 28
27156 33941 33945 28
27157 33946 33947 28
27158 33946 33948 28
27159 33946 33949 28
27160 33946 33950 28
27161 33951 33952 28
27162 33951 33953 28
27163 33951 33954 28
27164 33951 33955 28
27165 33956 33957 28
27166 33956 33958 28
27167 33956 33959 28
27168 33956 33960 28
27169 33961 33962 28
27170 33961 33963 28
27171 33961 33964 28
27172 33961 33965 28
27173 33966 33967 28
27174 33966 33968 28
27175 33966 33969 28
27176 33966 33970 28
27177 33971 33972 28
27178 33971 33973 28
27179 33971 33974 28
27180 33971 33975 28
27181 33976 33977 28
27182 33976 33978 28
27183 33976 33979 28
27184 33976 33980 28
27185 33981 33982 28
27186 33981 33983 28
27187 33981 33984 28
27188 33981 33985 28
27189 33986 33987 28
27190 33986 33988 28
27191 33986 33989 28
27192 33986 33990 28
27193 33991 33992 28
27194 33991 33993 28
27195 33991 33994 28
27196 33991 33995 28
27197 33996 33997 28
27198 33996 33998 28
27199 33996 33999 28
27200 33996 34000 28
27201 34001 34002 28
27202 34001 34003 28
27203 34001 34004 28
27204 34001 34005 28
27205 34006 34007 28
27206 34006 34008 28
27207 34006 34009 28
27208 34006 34010 28
27209 34011 34012 28
27210 34011 34013 28
27211 34011 34014 28
27212 34011 34015 28
27213 34016 34017 28
27214 34016 34018 28
27215 34016 34019 28
27216 34016 34020 28
27217 34021 34022 28
27218 34021 34023 28
27219 34021 34024 28
27220 34021 34025 28
27221 34026 34027 28
27222 34026 34028 28
27223 34026 34029 28
27224 34026 34030 28
27225 34031 34032 28
27226 34031 34033 28
27227 34031 34034 28
27228 34031 34035 28
27229 34036 34037 28
27230 34036 34038 28
27231 34036 34039 28
27232 34036 34040 28
27233 34041 34042 28
27234 34041 34043 28
27235 34041 34044 28
27236 34041 34045 28
27237 34046 34047 28
27238 34046 34048 28
27239 34046 34049 28
27240 34046 34050 28
27241 34051 34052 28
27242 34051 34053 28
27243 34051 34054 28
27244 34051 34055 28
27245 34056 34057 28
27246 34056 34058 28
27247 34056 34059 28
27248 34056 34060 28
27249 34061 34062 28
27250 34061 34063 28
27251 34061 34064 28
27252 34061 34065 28
27253 34066 34067 28
27254 34066 34068 28
27255 34066 34069 28
27256 34066 34070 28
27257 34071 34072 28
27258 34071 34073 28
27259 34071 34074 28
27260 34071 34075 28
27261 34076 34077 28
27262 34076 34078 28
27263 34076 34079 28
27264 34076 34080 28
27265 34081 34082 28
27266 34081 34083 28
27267 34081 34084 28
27268 34081 34085 28
27269 34086 34087 28
27270 34086 34088 28
27271 34086 34089 28
27272 34086 34090 28
27273 34091 34092 28
27274 34091 34093 28
27275 34091 34094 28
27276 34091 34095 28
27277 34096 34097 28
27278 34096 34098 28
27279 34096 34099 28
27280 34096 34100 28
27281 34101 34102 28
27282 34101 34103 28
27283 34101 34104 28
27284 34101 34105 28
27285 34106 34107 28
27286 34106 34108 28
27287 34106 34109 28
27288 34106 34110 28
27289 34111 34112 28
27290 34111 34113 28
27291 34111 34114 28
27292 34111 34115 28
27293 34116 34117 28
27294 34116 34118 28
27295 34116 34119 28
27296 34116 34120 28
27297 34121 34122 28
27298 34121 34123 28
27299 34121 34124 28
27300 34121 34125 28
27301 34126 34127 28
27302 34126 34128 28
27303 34126 34129 28
27304 34126 34130 28
27305 34131 34132 28
27306 34131 34133 28
27307 34131 34134 28
27308 34131 34135 28
27309 34136 34137 28
27310 34136 34138 28
27311 34136 34139 28
27312 34136 34140 28
27313 34141 34142 28
27314 34141 34143 28
27315 34141 34144 28
27316 34141 34145 28
27317 34146 34147 28
27318 34146 34148 28
27319 34146 34149 28
27320 34146 34150 28
27321 34151 34152 28
27322 34151 34153 28
27323 34151 34154 28
27324 34151 34155 28
27325 34156 34157 28
27326 34156 34158 28
27327 34156 34159 28
27328 34156 34160 28
27329 34161 34162 28
27330 34161 34163 28
27331 34161 34164 28
27332 34161 34165 28
27333 34166 34167 28
27334 34166 34168 28
27335 34166 34169 28
27336 34166 34170 28
27337 34171 34172 28
27338 34171 34173 28
27339 34171 34174 28
27340 34171 34175 28
27341 34176 34177 28
27342 34176 34178 28
27343 34176 34179 28
27344 34176 34180 28
27345 34181 34182 28
27346 34181 34183 28
27347 34181 34184 28
27348 34181 34185 28
27349 34186 34187 28
27350 34186 34188 28
27351 34186 34189 28
27352 34186 34190 28
27353 34191 34192 28
27354 34191 34193 28
27355 34191 34194 28
27356 34191 34195 28
27357 34196 34197 28
27358 34196 34198 28
27359 34196 34199 28
27360 34196 34200 28
27361 34201 34202 28
27362 34201 34203 28
27363 34201 34204 28
27364 34201 34205 28
27365 34206 34207 28
27366 34206 34208 28
27367 34206 34209 28
27368 34206 34210 28
27369 34211 34212 28
27370 34211 34213 28
27371 34211 34214 28
27372 34211 34215 28
27373 34216 34217 28
27374 34216 34218 28
27375 34216 34219 28
27376 34216 34220 28
27377 34221 34222 28
27378 34221 34223 28
27379 34221 34224 28
27380 34221 34225 28
27381 34226 34227 28
27382 34226 34228 28
27383 34226 34229 28
27384 34226 34230 28
27385 34231 34232 28
27386 34231 34233 28
27387 34231 34234 28
27388 34231 34235 28
27389 34236 34237 28
27390 34236 34238 28
27391 34236 34239 28
27392 34236 34240 28
27393 34241 34242 28
27394 34241 34243 28
27395 34241 34244 28
27396 34241 34245 28
27397 34246 34247 28
27398 34246 34248 28
27399 34246 34249 28
27400 34246 34250 28
27401 34251 34252 28
27402 34251 34253 28
27403 34251 34254 28
27404 34251 34255 28
27405 34256 34257 28
27406 34256 34258 28
27407 34256 34259 28
27408 34256 34260 28
27409 34261 34262 28
27410 34261 34263 28
27411 34261 34264 28
27412 34261 34265 28
27413 34266 34267 28
27414 34266 34268 28
27415 34266 34269 28
27416 34266 34270 28
27417 34271 34272 28
27418 34271 34273 28
27419 34271 34274 28
27420 34271 34275 28
27421 34276 34277 28
27422 34276 34278 28
27423 34276 34279 28
27424 34276 34280 28
27425 34281 34282 28
27426 34281 34283 28
27427 34281 34284 28
27428 34281 34285 28
27429 34286 34287 28
27430 34286 34288 28
27431 34286 34289 28
27432 34286 34290 28
27433 34291 34292 28
27434 34291 34293 28
27435 34291 34294 28
27436 34291 34295 28
27437 34296 34297 28
27438 34296 34298 28
27439 34296 34299 28
27440 34296 34300 28
27441 34301 34302 28
27442 34301 34303 28
27443 34301 34304 28
27444 34301 34305 28
27445 34306 34307 28
27446 34306 34308 28
27447 34306 34309 28
27448 34306 34310 28
27449 34311 34312 28
27450 34311 34313 28
27451 34311 34314 28
27452 34311 34315 28
27453 34316 34317 28
27454 34316 34318 28
27455 34316 34319 28
27456 34316 34320 28
27457 34321 34322 28
27458 34321 34323 28
27459 34321 34324 28
27460 34321 34325 28
27461 34326 34327 28
27462 34326 34328 28
27463 34326 34329 28
27464 34326 34330 28
27465 34331 34332 28
27466 34331 34333 28
27467 34331 34334 28
27468 34331 34335 28
27469 34336 34337 28
27470 34336 34338 28
27471 34336 34339 28
27472 34336 34340 28
27473 34341 34342 28
27474 34341 34343 28
27475 34341 34344 28
27476 34341 34345 28
27477 34346 34347 28
27478 34346 34348 28
27479 34346 34349 28
27480 34346 34350 28
27481 34351 34352 28
27482 34351 34353 28
27483 34351 34354 28
27484 34351 34355 28
27485 34356 34357 28
27486 34356 34358 28
27487 34356 34359 28
27488 34356 34360 28
27489 34361 34362 28
27490 34361 34363 28
27491 34361 34364 28
27492 34361 34365 28
27493 34366 34367 28
27494 34366 34368 28
27495 34366 34369 28
27496 34366 34370 28
27497 34371 34372 28
27498 34371 34373 28
27499 34371 34374 28
27500 34371 34375 28
27501 34376 34377 28
27502 34376 34378 28
27503 34376 34379 28
27504 34376 34380 28
27505 34381 34382 28
27506 34381 34383 28
27507 34381 34384 28
27508 34381 34385 28
27509 34386 34387 28
27510 34386 34388 28
27511 34386 34389 28
27512 34386 34390 28
27513 34391 34392 28
27514 34391 34393 28
27515 34391 34394 28
27516 34391 34395 28
27517 34396 34397 28
27518 34396 34398 28
27519 34396 34399 28
27520 34396 34400 28
27521 34401 34402 28
27522 34401 34403 28
27523 34401 34404 28
27524 34401 34405 28
27525 34406 34407 28
27526 34406 34408 28
27527 34406 34409 28
27528 34406 34410 28
27529 34411 34412 28
27530 34411 34413 28
27531 34411 34414 28
27532 34411 34415 28
27533 34416 34417 28
27534 34416 34418 28
27535 34416 34419 28
27536 34416 34420 28
27537 34421 34422 28
27538 34421 34423 28
27539 34421 34424 28
27540 34421 34425 28
27541 34426 34427 28
27542 34426 34428 28
27543 34426 34429 28
27544 34426 34430 28
27545 34431 34432 28
27546 34431 34433 28
27547 34431 34434 28
27548 34431 34435 28
27549 34436 34437 28
27550 34436 34438 28
27551 34436 34439 28
27552 34436 34440 28
27553 34441 34442 28
27554 34441 34443 28
27555 34441 34444 28
27556 34441 34445 28
27557 34446 34447 28
27558 34446 34448 28
27559 34446 34449 28
27560 34446 34450 28
27561 34451 34452 28
27562 34451 34453 28
27563 34451 34454 28
27564 34451 34455 28
27565 34456 34457 28
27566 34456 34458 28
27567 34456 34459 28
27568 34456 34460 28
27569 34461 34462 28
27570 34461 34463 28
27571 34461 34464 28
27572 34461 34465 28
27573 34466 34467 28
27574 34466 34468 28
27575 34466 34469 28
27576 34466 34470 28
27577 34471 34472 28
27578 34471 34473 28
27579 34471 34474 28
27580 34471 34475 28
27581 34476 34477 28
27582 34476 34478 28
27583 34476 34479 28
27584 34476 34480 28
27585 34481 34482 28
27586 34481 34483 28
27587 34481 34484 28
27588 34481 34485 28
27589 34486 34487 28
27590 34486 34488 28
27591 34486 34489 28
27592 34486 34490 28
27593 34491 34492 28
27594 34491 34493 28
27595 34491 34494 28
27596 34491 34495 28
27597 34496 34497 28
27598 34496 34498 28
27599 34496 34499 28
27600 34496 34500 28
27601 34501 34502 28
27602 34501 34503 28
27603 34501 34504 28
27604 34501 34505 28
27605 34506 34507 28
27606 34506 34508 28
27607 34506 34509 28
27608 34506 34510 28
27609 34511 34512 28
27610 34511 34513 28
27611 34511 34514 28
27612 34511 34515 28
27613 34516 34517 28
27614 34516 34518 28
27615 34516 34519 28
27616 34516 34520 28
27617 34521 34522 28
27618 34521 34523 28
27619 34521 34524 28
27620 34521 34525 28
27621 34526 34527 28
27622 34526 34528 28
27623 34526 34529 28
27624 34526 34530 28
27625 34531 34532 28
27626 34531 34533 28
27627 34531 34534 28
27628 34531 34535 28
27629 34536 34537 28
27630 34536 34538 28
27631 34536 34539 28
27632 34536 34540 28
27633 34541 34542 28
27634 34541 34543 28
27635 34541 34544 28
27636 34541 34545 28
27637 34546 34547 28
27638 34546 34548 28
27639 34546 34549 28
27640 34546 34550 28
27641 34551 34552 28
27642 34551 34553 28
27643 34551 34554 28
27644 34551 34555 28
27645 34556 34557 28
27646 34556 34558 28
27647 34556 34559 28
27648 34556 34560 28
27649 34561 34562 28
27650 34561 34563 28
27651 34561 34564 28
27652 34561 34565 28
27653 34566 34567 28
27654 34566 34568 28
27655 34566 34569 28
27656 34566 34570 28
27657 34571 34572 28
27658 34571 34573 28
27659 34571 34574 28
27660 34571 34575 28
27661 34576 34577 28
27662 34576 34578 28
27663 34576 34579 28
27664 34576 34580 28
27665 34581 34582 28
27666 34581 34583 28
27667 34581 34584 28
27668 34581 34585 28
27669 34586 34587 28
27670 34586 34588 28
27671 34586 34589 28
27672 34586 34590 28
27673 34591 34592 28
27674 34591 34593 28
27675 34591 34594 28
27676 34591 34595 28
27677 34596 34597 28
27678 34596 34598 28
27679 34596 34599 28
27680 34596 34600 28
27681 34601 34602 28
27682 34601 34603 28
27683 34601 34604 28
27684 34601 34605 28
27685 34606 34607 28
27686 34606 34608 28
27687 34606 34609 28
27688 34606 34610 28
27689 34611 34612 28
27690 34611 34613 28
27691 34611 34614 28
27692 34611 34615 28
27693 34616 34617 28
27694 34616 34618 28
27695 34616 34619 28
27696 34616 34620 28
27697 34621 34622 28
27698 34621 34623 28
27699 34621 34624 28
27700 34621 34625 28
27701 34626 34627 28
27702 34626 34628 28
27703 34626 34629 28
27704 34626 34630 28
27705 34631 34632 28
27706 34631 34633 28
27707 34631 34634 28
27708 34631 34635 28
27709 34636 34637 28
27710 34636 34638 28
27711 34636 34639 28
27712 34636 34640 28
27713 34641 34642 28
27714 34641 34643 28
27715 34641 34644 28
27716 34641 34645 28
27717 34646 34647 28
27718 34646 34648 28
27719 34646 34649 28
27720 34646 34650 28
27721 34651 34652 28
27722 34651 34653 28
27723 34651 34654 28
27724 34651 34655 28
27725 34656 34657 28
27726 34656 34658 28
27727 34656 34659 28
27728 34656 34660 28
27729 34661 34662 28
27730 34661 34663 28
27731 34661 34664 28
27732 34661 34665 28
27733 34666 34667 28
27734 34666 34668 28
27735 34666 34669 28
27736 34666 34670 28
27737 34671 34672 28
27738 34671 34673 28
27739 34671 34674 28
27740 34671 34675 28
27741 34676 34677 28
27742 34676 34678 28
27743 34676 34679 28
27744 34676 34680 28
27745 34681 34682 28
27746 34681 34683 28
27747 34681 34684 28
27748 34681 34685 28
27749 34686 34687 28
27750 34686 34688 28
27751 34686 34689 28
27752 34686 34690 28
27753 34691 34692 28
27754 34691 34693 28
27755 34691 34694 28
27756 34691 34695 28
27757 34696 34697 28
27758 34696 34698 28
27759 34696 34699 28
27760 34696 34700 28
27761 34701 34702 28
27762 34701 34703 28
27763 34701 34704 28
27764 34701 34705 28
27765 34706 34707 28
27766 34706 34708 28
27767 34706 34709 28
27768 34706 34710 28
27769 34711 34712 28
27770 34711 34713 28
27771 34711 34714 28
27772 34711 34715 28
27773 34716 34717 28
27774 34716 34718 28
27775 34716 34719 28
27776 34716 34720 28
27777 34721 34722 28
27778 34721 34723 28
27779 34721 34724 28
27780 34721 34725 28
27781 34726 34727 28
27782 34726 34728 28
27783 34726 34729 28
27784 34726 34730 28
27785 34731 34732 28
27786 34731 34733 28
27787 34731 34734 28
27788 34731 34735 28
27789 34736 34737 28
27790 34736 34738 28
27791 34736 34739 28
27792 34736 34740 28
27793 34741 34742 28
27794 34741 34743 28
27795 34741 34744 28
27796 34741 34745 28
27797 34746 34747 28
27798 34746 34748 28
27799 34746 34749 28
27800 34746 34750 28
27801 34751 34752 28
27802 34751 34753 28
27803 34751 34754 28
27804 34751 34755 28
27805 34756 34757 28
27806 34756 34758 28
27807 34756 34759 28
27808 34756 34760 28
27809 34761 34762 28
27810 34761 34763 28
27811 34761 34764 28
27812 34761 34765 28
27813 34766 34767 28
27814 34766 34768 28
27815 34766 34769 28
27816 34766 34770 28
27817 34771 34772 28
27818 34771 34773 28
27819 34771 34774 28
27820 34771 34775 28
27821 34776 34777 28
27822 34776 34778 28
27823 34776 34779 28
27824 34776 34780 28
27825 34781 34782 28
27826 34781 34783 28
27827 34781 34784 28
27828 34781 34785 28
27829 34786 34787 28
27830 34786 34788 28
27831 34786 34789 28
27832 34786 34790 28
27833 34791 34792 28
27834 34791 34793 28
27835 34791 34794 28
27836 34791 34795 28
27837 34796 34797 28
27838 34796 34798 28
27839 34796 34799 28
27840 34796 34800 28
27841 34801 34802 28
27842 34801 34803 28
27843 34801 34804 28
27844 34801 34805 28
27845 34806 34807 28
27846 34806 34808 28
27847 34806 34809 28
27848 34806 34810 28
27849 34811 34812 28
27850 34811 34813 28
27851 34811 34814 28
27852 34811 34815 28
27853 34816 34817 28
27854 34816 34818 28
27855 34816 34819 28
27856 34816 34820 28
27857 34821 34822 28
27858 34821 34823 28
27859 34821 34824 28
27860 34821 34825 28
27861 34826 34827 28
27862 34826 34828 28
27863 34826 34829 28
27864 34826 34830 28
27865 34831 34832 28
27866 34831 34833 28
27867 34831 34834 28
27868 34831 34835 28
27869 34836 34837 28
27870 34836 34838 28
27871 34836 34839 28
27872 34836 34840 28
27873 34841 34842 28
27874 34841 34843 28
27875 34841 34844 28
27876 34841 34845 28
27877 34846 34847 28
27878 34846 34848 28
27879 34846 34849 28
27880 34846 34850 28
27881 34851 34852 28
27882 34851 34853 28
27883 34851 34854 28
27884 34851 34855 28
27885 34856 34857 28
27886 34856 34858 28
27887 34856 34859 28
27888 34856 34860 28
27889 34861 34862 28
27890 34861 34863 28
27891 34861 34864 28
27892 34861 34865 28
27893 34866 34867 28
27894 34866 34868 28
27895 34866 34869 28
27896 34866 34870 28
27897 34871 34872 28
27898 34871 34873 28
27899 34871 34874 28
27900 34871 34875 28
27901 34876 34877 28
27902 34876 34878 28
27903 34876 34879 28
27904 34876 34880 28
27905 34881 34882 28
27906 34881 34883 28
27907 34881 34884 28
27908 34881 34885 28
27909 34886 34887 28
27910 34886 34888 28
27911 34886 34889 28
27912 34886 34890 28
27913 34891 34892 28
27914 34891 34893 28
27915 34891 34894 28
27916 34891 34895 28
27917 34896 34897 28
27918 34896 34898 28
27919 34896 34899 28
27920 34896 34900 28
27921 34901 34902 28
27922 34901 34903 28
27923 34901 34904 28
27924 34901 34905 28
27925 34906 34907 28
27926 34906 34908 28
27927 34906 34909 28
27928 34906 34910 28
27929 34911 34912 28
27930 34911 34913 28
27931 34911 34914 28
27932 34911 34915 28
27933 34916 34917 28
27934 34916 34918 28
27935 34916 34919 28
27936 34916 34920 28
27937 34921 34922 28
27938 34921 34923 28
27939 34921 34924 28
27940 34921 34925 28
27941 34926 34927 28
27942 34926 34928 28
27943 34926 34929 28
27944 34926 34930 28
27945 34931 34932 28
27946 34931 34933 28
27947 34931 34934 28
27948 34931 34935 28
27949 34936 34937 28
27950 34936 34938 28
27951 34936 34939 28
27952 34936 34940 28
27953 34941 34942 28
27954 34941 34943 28
27955 34941 34944 28
27956 34941 34945 28
27957 34946 34947 28
27958 34946 34948 28
27959 34946 34949 28
27960 34946 34950 28
27961 34951 34952 28
27962 34951 34953 28
27963 34951 34954 28
27964 34951 34955 28
27965 34956 34957 28
27966 34956 34958 28
27967 34956 34959 28
27968 34956 34960 28
27969 34961 34962 28
27970 34961 34963 28
27971 34961 34964 28
27972 34961 34965 28
27973 34966 34967 28
27974 34966 34968 28
27975 34966 34969 28
27976 34966 34970 28
27977 34971 34972 28
27978 34971 34973 28
27979 34971 34974 28
27980 34971 34975 28
27981 34976 34977 28
27982 34976 34978 28
27983 34976 34979 28
27984 34976 34980 28
27985 34981 34982 28
27986 34981 34983 28
27987 34981 34984 28
27988 34981 34985 28
27989 34986 34987 28
27990 34986 34988 28
27991 34986 34989 28
27992 34986 34990 28
27993 34991 34992 28
27994 34991 34993 28
27995 34991 34994 28
27996 34991 34995 28
27997 34996 34997 28
27998 34996 34998 28
27999 34996 34999 28
28000 34996 35000 28
28001 35001 35002 28
28002 35001 35003 28
28003 35001 35004 28
28004 35001 35005 28
28005 35006 35007 28
28006 35006 35008 28
28007 35006 35009 28
28008 35006 35010 28
28009 35011 35012 28
28010 35011 35013 28
28011 35011 35014 28
28012 35011 35015 28
28013 35016 35017 28
28014 35016 35018 28
28015 35016 35019 28
28016 35016 35020 28
28017 35021 35022 28
28018 35021 35023 28
28019 35021 35024 28
28020 35021 35025 28
28021 35026 35027 28
28022 35026 35028 28
28023 35026 35029 28
28024 35026 35030 28
28025 35031 35032 28
28026 35031 35033 28
28027 35031 35034 28
28028 35031 35035 28
28029 35036 35037 28
28030 35036 35038 28
28031 35036 35039 28
28032 35036 35040 28
28033 35041 35042 28
28034 35041 35043 28
28035 35041 35044 28
28036 35041 35045 28
28037 35046 35047 28
28038 35046 35048 28
28039 35046 35049 28
28040 35046 35050 28
28041 35051 35052 28
28042 35051 35053 28
28043 35051 35054 28
28044 35051 35055 28
28045 35056 35057 28
28046 35056 35058 28
28047 35056 35059 28
28048 35056 35060 28
28049 35061 35062 28
28050 35061 35063 28
28051 35061 35064 28
28052 35061 35065 28
28053 35066 35067 28
28054 35066 35068 28
28055 35066 35069 28
28056 35066 35070 28
28057 35071 35072 28
28058 35071 35073 28
28059 35071 35074 28
28060 35071 35075 28
28061 35076 35077 28
28062 35076 35078 28
28063 35076 35079 28
28064 35076 35080 28
28065 35081 35082 28
28066 35081 35083 28
28067 35081 35084 28
28068 35081 35085 28
28069 35086 35087 28
28070 35086 35088 28
28071 35086 35089 28
28072 35086 35090 28
28073 35091 35092 28
28074 35091 35093 28
28075 35091 35094 28
28076 35091 35095 28
28077 35096 35097 28
28078 35096 35098 28
28079 35096 35099 28
28080 35096 35100 28
28081 35101 35102 28
28082 35101 35103 28
28083 35101 35104 28
28084 35101 35105 28
28085 35106 35107 28
28086 35106 35108 28
28087 35106 35109 28
28088 35106 35110 28
28089 35111 35112 28
28090 35111 35113 28
28091 35111 35114 28
28092 35111 35115 28
28093 35116 35117 28
28094 35116 35118 28
28095 35116 35119 28
28096 35116 35120 28
28097 35121 35122 28
28098 35121 35123 28
28099 35121 35124 28
28100 35121 35125 28
28101 35126 35127 28
28102 35126 35128 28
28103 35126 35129 28
28104 35126 35130 28
28105 35131 35132 28
28106 35131 35133 28
28107 35131 35134 28
28108 35131 35135 28
28109 35136 35137 28
28110 35136 35138 28
28111 35136 35139 28
28112 35136 35140 28
28113 35141 35142 28
28114 35141 35143 28
28115 35141 35144 28
28116 35141 35145 28
28117 35146 35147 28
28118 35146 35148 28
28119 35146 35149 28
28120 35146 35150 28
28121 35151 35152 28
28122 35151 35153 28
28123 35151 35154 28
28124 35151 35155 28
28125 35156 35157 28
28126 35156 35158 28
28127 35156 35159 28
28128 35156 35160 28
28129 35161 35162 28
28130 35161 35163 28
28131 35161 35164 28
28132 35161 35165 28
28133 35166 35167 28
28134 35166 35168 28
28135 35166 35169 28
28136 35166 35170 28
28137 35171 35172 28
28138 35171 35173 28
28139 35171 35174 28
28140 35171 35175 28
28141 35176 35177 28
28142 35176 35178 28
28143 35176 35179 28
28144 35176 35180 28
28145 35181 35182 28
28146 35181 35183 28
28147 35181 35184 28
28148 35181 35185 28
28149 35186 35187 28
28150 35186 35188 28
28151 35186 35189 28
28152 35186 35190 28
28153 35191 35192 28
28154 35191 35193 28
28155 35191 35194 28
28156 35191 35195 28
28157 35196 35197 28
28158 35196 35198 28
28159 35196 35199 28
28160 35196 35200 28
28161 35201 35202 28
28162 35201 35203 28
28163 35201 35204 28
28164 35201 35205 28
28165 35206 35207 28
28166 35206 35208 28
28167 35206 35209 28
28168 35206 35210 28
28169 35211 35212 28
28170 35211 35213 28
28171 35211 35214 28
28172 35211 35215 28
28173 35216 35217 28
28174 35216 35218 28
28175 35216 35219 28
28176 35216 35220 28
28177 35221 35222 28
28178 35221 35223 28
28179 35221 35224 28
28180 35221 35225 28
28181 35226 35227 28
28182 35226 35228 28
28183 35226 35229 28
28184 35226 35230 28
28185 35231 35232 28
28186 35231 35233 28
28187 35231 35234 28
28188 35231 35235 28
28189 35236 35237 28
28190 35236 35238 28
28191 35236 35239 28
28192 35236 35240 28
28193 35241 35242 28
28194 35241 35243 28
28195 35241 35244 28
28196 35241 35245 28
28197 35246 35247 28
28198 35246 35248 28
28199 35246 35249 28
28200 35246 35250 28
28201 35251 35252 28
28202 35251 35253 28
28203 35251 35254 28
28204 35251 35255 28
28205 35256 35257 28
28206 35256 35258 28
28207 35256 35259 28
28208 35256 35260 28
28209 35261 35262 28
28210 35261 35263 28
28211 35261 35264 28
28212 35261 35265 28
28213 35266 35267 28
28214 35266 35268 28
28215 35266 35269 28
28216 35266 35270 28
28217 35271 35272 28
28218 35271 35273 28
28219 35271 35274 28
28220 35271 35275 28
28221 35276 35277 28
28222 35276 35278 28
28223 35276 35279 28
28224 35276 35280 28
28225 35281 35282 28
28226 35281 35283 28
28227 35281 35284 28
28228 35281 35285 28
28229 35286 35287 28
28230 35286 35288 28
28231 35286 35289 28
28232 35286 35290 28
28233 35291 35292 28
28234 35291 35293 28
28235 35291 35294 28
28236 35291 35295 28
28237 35296 35297 28
28238 35296 35298 28
28239 35296 35299 28
28240 35296 35300 28
28241 35301 35302 28
28242 35301 35303 28
28243 35301 35304 28
28244 35301 35305 28
28245 35306 35307 28
28246 35306 35308 28
28247 35306 35309 28
28248 35306 35310 28
28249 35311 35312 28
28250 35311 35313 28
28251 35311 35314 28
28252 35311 35315 28
28253 35316 35317 28
28254 35316 35318 28
28255 35316 35319 28
28256 35316 35320 28
28257 35321 35322 28
28258 35321 35323 28
28259 35321 35324 28
28260 35321 35325 28
28261 35326 35327 28
28262 35326 35328 28
28263 35326 35329 28
28264 35326 35330 28
28265 35331 35332 28
28266 35331 35333 28
28267 35331 35334 28
28268 35331 35335 28
28269 35336 35337 28
28270 35336 35338 28
28271 35336 35339 28
28272 35336 35340 28
28273 35341 35342 28
28274 35341 35343 28
28275 35341 35344 28
28276 35341 35345 28
28277 35346 35347 28
28278 35346 35348 28
28279 35346 35349 28
28280 35346 35350 28
28281 35351 35352 28
28282 35351 35353 28
28283 35351 35354 28
28284 35351 35355 28
28285 35356 35357 28
28286 35356 35358 28
28287 35356 35359 28
28288 35356 35360 28
28289 35361 35362 28
28290 35361 35363 28
28291 35361 35364 28
28292 35361 35365 28
28293 35366 35367 28
28294 35366 35368 28
28295 35366 35369 28
28296 35366 35370 28
28297 35371 35372 28
28298 35371 35373 28
28299 35371 35374 28
28300 35371 35375 28
28301 35376 35377 28
28302 35376 35378 28
28303 35376 35379 28
28304 35376 35380 28
28305 35381 35382 28
28306 35381 35383 28
28307 35381 35384 28
28308 35381 35385 28
28309 35386 35387 28
28310 35386 35388 28
28311 35386 35389 28
28312 35386 35390 28
28313 35391 35392 28
28314 35391 35393 28
28315 35391 35394 28
28316 35391 35395 28
28317 35396 35397 28
28318 35396 35398 28
28319 35396 35399 28
28320 35396 35400 28
28321 35401 35402 28
28322 35401 35403 28
28323 35401 35404 28
28324 35401 35405 28
28325 35406 35407 28
28326 35406 35408 28
28327 35406 35409 28
28328 35406 35410 28
28329 35411 35412 28
28330 35411 35413 28
28331 35411 35414 28
28332 35411 35415 28
28333 35416 35417 28
28334 35416 35418 28
28335 35416 35419 28
28336 35416 35420 28
28337 35421 35422 28
28338 35421 35423 28
28339 35421 35424 28
28340 35421 35425 28
28341 35426 35427 28
28342 35426 35428 28
28343 35426 35429 28
28344 35426 35430 28
28345 35431 35432 28
28346 35431 35433 28
28347 35431 35434 28
28348 35431 35435 28
28349 35436 35437 28
28350 35436 35438 28
28351 35436 35439 28
28352 35436 35440 28
28353 35441 35442 28
28354 35441 35443 28
28355 35441 35444 28
28356 35441 35445 28
28357 35446 35447 28
28358 35446 35448 28
28359 35446 35449 28
28360 35446 35450 28
28361 35451 35452 28
28362 35451 35453 28
28363 35451 35454 28
28364 35451 35455 28
28365 35456 35457 28
28366 35456 35458 28
28367 35456 35459 28
28368 35456 35460 28
28369 35461 35462 28
28370 35461 35463 28
28371 35461 35464 28
28372 35461 35465 28
28373 35466 35467 28
28374 35466 35468 28
28375 35466 35469 28
28376 35466 35470 28
28377 35471 35472 28
28378 35471 35473 28
28379 35471 35474 28
28380 35471 35475 28
28381 35476 35477 28
28382 35476 35478 28
28383 35476 35479 28
28384 35476 35480 28
28385 35481 35482 28
28386 35481 35483 28
28387 35481 35484 28
28388 35481 35485 28
28389 35486 35487 28
28390 35486 35488 28
28391 35486 35489 28
28392 35486 35490 28
28393 35491 35492 28
28394 35491 35493 28
28395 35491 35494 28
28396 35491 35495 28
28397 35496 35497 28
28398 35496 35498 28
28399 35496 35499 28
28400 35496 35500 28
28401 35501 35502 28
28402 35501 35503 28
28403 35501 35504 28
28404 35501 35505 28
28405 35506 35507 28
28406 35506 35508 28
28407 35506 35509 28
28408 35506 35510 28
28409 35511 35512 28
28410 35511 35513 28
28411 35511 35514 28
28412 35511 35515 28
28413 35516 35517 28
28414 35516 35518 28
28415 35516 35519 28
28416 35516 35520 28
28417 35521 35522 28
28418 35521 35523 28
28419 35521 35524 28
28420 35521 35525 28
28421 35526 35527 28
28422 35526 35528 28
28423 35526 35529 28
28424 35526 35530 28
28425 35531 35532 28
28426 35531 35533 28
28427 35531 35534 28
28428 35531 35535 28
28429 35536 35537 28
28430 35536 35538 28
28431 35536 35539 28
28432 35536 35540 28
28433 35541 35542 28
28434 35541 35543 28
28435 35541 35544 28
28436 35541 35545 28
28437 35546 35547 28
28438 35546 35548 28
28439 35546 35549 28
28440 35546 35550 28
28441 35551 35552 28
28442 35551 35553 28
28443 35551 35554 28
28444 35551 35555 28
28445 35556 35557 28
28446 35556 35558 28
28447 35556 35559 28
28448 35556 35560 28
28449 35561 35562 28
28450 35561 35563 28
28451 35561 35564 28
28452 35561 35565 28
28453 35566 35567 28
28454 35566 35568 28
28455 35566 35569 28
28456 35566 35570 28
28457 35571 35572 28
28458 35571 35573 28
28459 35571 35574 28
28460 35571 35575 28
28461 35576 35577 28
28462 35576 35578 28
28463 35576 35579 28
28464 35576 35580 28
28465 35581 35582 28
28466 35581 35583 28
28467 35581 35584 28
28468 35581 35585 28
28469 35586 35587 28
28470 35586 35588 28
28471 35586 35589 28
28472 35586 35590 28
28473 35591 35592 28
28474 35591 35593 28
28475 35591 35594 28
28476 35591 35595 28
28477 35596 35597 28
28478 35596 35598 28
28479 35596 35599 28
28480 35596 35600 28
28481 35601 35602 28
28482 35601 35603 28
28483 35601 35604 28
28484 35601 35605 28
28485 35606 35607 28
28486 35606 35608 28
28487 35606 35609 28
28488 35606 35610 28
28489 35611 35612 28
28490 35611 35613 28
28491 35611 35614 28
28492 35611 35615 28
28493 35616 35617 28
28494 35616 35618 28
28495 35616 35619 28
28496 35616 35620 28
28497 35621 35622 28
28498 35621 35623 28
28499 35621 35624 28
28500 35621 35625 28
28501 35626 35627 28
28502 35626 35628 28
28503 35626 35629 28
28504 35626 35630 28
28505 35631 35632 28
28506 35631 35633 28
28507 35631 35634 28
28508 35631 35635 28
28509 35636 35637 28
28510 35636 35638 28
28511 35636 35639 28
28512 35636 35640 28
28513 35641 35642 28
28514 35641 35643 28
28515 35641 35644 28
28516 35641 35645 28
28517 35646 35647 28
28518 35646 35648 28
28519 35646 35649 28
28520 35646 35650 28
28521 35651 35652 28
28522 35651 35653 28
28523 35651 35654 28
28524 35651 35655 28
28525 35656 35657 28
28526 35656 35658 28
28527 35656 35659 28
28528 35656 35660 28
28529 35661 35662 28
28530 35661 35663 28
28531 35661 35664 28
28532 35661 35665 28
28533 35666 35667 28
28534 35666 35668 28
28535 35666 35669 28
28536 35666 35670 28
28537 35671 35672 28
28538 35671 35673 28
28539 35671 35674 28
28540 35671 35675 28
28541 35676 35677 28
28542 35676 35678 28
28543 35676 35679 28
28544 35676 35680 28
28545 35681 35682 28
28546 35681 35683 28
28547 35681 35684 28
28548 35681 35685 28
28549 35686 35687 28
28550 35686 35688 28
28551 35686 35689 28
28552 35686 35690 28
28553 35691 35692 28
28554 35691 35693 28
28555 35691 35694 28
28556 35691 35695 28
28557 35696 35697 28
28558 35696 35698 28
28559 35696 35699 28
28560 35696 35700 28
28561 35701 35702 28
28562 35701 35703 28
28563 35701 35704 28
28564 35701 35705 28
28565 35706 35707 28
28566 35706 35708 28
28567 35706 35709 28
28568 35706 35710 28
28569 35711 35712 28
28570 35711 35713 28
28571 35711 35714 28
28572 35711 35715 28
28573 35716 35717 28
28574 35716 35718 28
28575 35716 35719 28
28576 35716 35720 28
28577 35721 35722 28
28578 35721 35723 28
28579 35721 35724 28
28580 35721 35725 28
28581 35726 35727 28
28582 35726 35728 28
28583 35726 35729 28
28584 35726 35730 28
28585 35731 35732 28
28586 35731 35733 28
28587 35731 35734 28
28588 35731 35735 28
28589 35736 35737 28
28590 35736 35738 28
28591 35736 35739 28
28592 35736 35740 28
28593 35741 35742 28
28594 35741 35743 28
28595 35741 35744 28
28596 35741 35745 28
28597 35746 35747 28
28598 35746 35748 28
28599 35746 35749 28
28600 35746 35750 28
28601 35751 35752 28
28602 35751 35753 28
28603 35751 35754 28
28604 35751 35755 28
28605 35756 35757 28
28606 35756 35758 28
28607 35756 35759 28
28608 35756 35760 28
28609 35761 35762 28
28610 35761 35763 28
28611 35761 35764 28
28612 35761 35765 28
28613 35766 35767 28
28614 35766 35768 28
28615 35766 35769 28
28616 35766 35770 28
28617 35771 35772 28
28618 35771 35773 28
28619 35771 35774 28
28620 35771 35775 28
28621 35776 35777 28
28622 35776 35778 28
28623 35776 35779 28
28624 35776 35780 28
28625 35781 35782 28
28626 35781 35783 28
28627 35781 35784 28
28628 35781 35785 28
28629 35786 35787 28
28630 35786 35788 28
28631 35786 35789 28
28632 35786 35790 28
28633 35791 35792 28
28634 35791 35793 28
28635 35791 35794 28
28636 35791 35795 28
28637 35796 35797 28
28638 35796 35798 28
28639 35796 35799 28
28640 35796 35800 28
28641 35801 35802 28
28642 35801 35803 28
28643 35801 35804 28
28644 35801 35805 28
28645 35806 35807 28
28646 35806 35808 28
28647 35806 35809 28
28648 35806 35810 28
28649 35811 35812 28
28650 35811 35813 28
28651 35811 35814 28
28652 35811 35815 28
28653 35816 35817 28
28654 35816 35818 28
28655 35816 35819 28
28656 35816 35820 28
28657 35821 35822 28
28658 35821 35823 28
28659 35821 35824 28
28660 35821 35825 28
28661 35826 35827 28
28662 35826 35828 28
28663 35826 35829 28
28664 35826 35830 28
28665 35831 35832 28
28666 35831 35833 28
28667 35831 35834 28
28668 35831 35835 28
28669 35836 35837 28
28670 35836 35838 28
28671 35836 35839 28
28672 35836 35840 28
28673 35841 35842 28
28674 35841 35843 28
28675 35841 35844 28
28676 35841 35845 28
28677 35846 35847 28
28678 35846 35848 28
28679 35846 35849 28
28680 35846 35850 28
28681 35851 35852 28
28682 35851 35853 28
28683 35851 35854 28
28684 35851 35855 28
28685 35856 35857 28
28686 35856 35858 28
28687 35856 35859 28
28688 35856 35860 28
28689 35861 35862 28
28690 35861 35863 28
28691 35861 35864 28
28692 35861 35865 28
28693 35866 35867 28
28694 35866 35868 28
28695 35866 35869 28
28696 35866 35870 28
28697 35871 35872 28
28698 35871 35873 28
28699 35871 35874 28
28700 35871 35875 28
28701 35876 35877 28
28702 35876 35878 28
28703 35876 35879 28
28704 35876 35880 28
28705 35881 35882 28
28706 35881 35883 28
28707 35881 35884 28
28708 35881 35885 28
28709 35886 35887 28
28710 35886 35888 28
28711 35886 35889 28
28712 35886 35890 28
28713 35891 35892 28
28714 35891 35893 28
28715 35891 35894 28
28716 35891 35895 28
28717 35896 35897 28
28718 35896 35898 28
28719 35896 35899 28
28720 35896 35900 28
28721 35901 35902 28
28722 35901 35903 28
28723 35901 35904 28
28724 35901 35905 28
28725 35906 35907 28
28726 35906 35908 28
28727 35906 35909 28
28728 35906 35910 28
28729 35911 35912 28
28730 35911 35913 28
28731 35911 35914 28
28732 35911 35915 28
28733 35916 35917 28
28734 35916 35918 28
28735 35916 35919 28
28736 35916 35920 28
28737 35921 35922 28
28738 35921 35923 28
28739 35921 35924 28
28740 35921 35925 28
28741 35926 35927 28
28742 35926 35928 28
28743 35926 35929 28
28744 35926 35930 28
28745 35931 35932 28
28746 35931 35933 28
28747 35931 35934 28
28748 35931 35935 28
28749 35936 35937 28
28750 35936 35938 28
28751 35936 35939 28
28752 35936 35940 28
28753 35941 35942 28
28754 35941 35943 28
28755 35941 35944 28
28756 35941 35945 28
28757 35946 35947 28
28758 35946 35948 28
28759 35946 35949 28
28760 35946 35950 28
28761 35951 35952 28
28762 35951 35953 28
28763 35951 35954 28
28764 35951 35955 28
28765 35956 35957 28
28766 35956 35958 28
28767 35956 35959 28
28768 35956 35960 28
28769 35961 35962 28
28770 35961 35963 28
28771 35961 35964 28
28772 35961 35965 28
28773 35966 35967 28
28774 35966 35968 28
28775 35966 35969 28
28776 35966 35970 28
28777 35971 35972 28
28778 35971 35973 28
28779 35971 35974 28
28780 35971 35975 28
28781 35976 35977 28
28782 35976 35978 28
28783 35976 35979 28
28784 35976 35980 28
28785 35981 35982 28
28786 35981 35983 28
28787 35981 35984 28
28788 35981 35985 28
28789 35986 35987 28
28790 35986 35988 28
28791 35986 35989 28
28792 35986 35990 28
28793 35991 35992 28
28794 35991 35993 28
28795 35991 35994 28
28796 35991 35995 28
28797 35996 35997 28
28798 35996 35998 28
28799 35996 35999 28
28800 35996 36000 28
28801 36001 36002 28
28802 36001 36003 28
28803 36001 36004 28
28804 36001 36005 28
28805 36006 36007 28
28806 36006 36008 28
28807 36006 36009 28
28808 36006 36010 28
28809 36011 36012 28
28810 36011 36013 28
28811 36011 36014 28
28812 36011 36015 28
28813 36016 36017 28
28814 36016 36018 28
28815 36016 36019 28
28816 36016 36020 28
28817 36021 36022 28
28818 36021 36023 28
28819 36021 36024 28
28820 36021 36025 28
28821 36026 36027 28
28822 36026 36028 28
28823 36026 36029 28
28824 36026 36030 28
28825 36031 36032 28
28826 36031 36033 28
28827 36031 36034 28
28828 36031 36035 28
28829 36036 36037 28
28830 36036 36038 28
28831 36036 36039 28
28832 36036 36040 28
28833 36041 36042 28
28834 36041 36043 28
28835 36041 36044 28
28836 36041 36045 28
28837 36046 36047 28
28838 36046 36048 28
28839 36046 36049 28
28840 36046 36050 28
28841 36051 36052 28
28842 36051 36053 28
28843 36051 36054 28
28844 36051 36055 28
28845 36056 36057 28
28846 36056 36058 28
28847 36056 36059 28
28848 36056 36060 28
28849 36061 36062 28
28850 36061 36063 28
28851 36061 36064 28
28852 36061 36065 28
28853 36066 36067 28
28854 36066 36068 28
28855 36066 36069 28
28856 36066 36070 28
28857 36071 36072 28
28858 36071 36073 28
28859 36071 36074 28
28860 36071 36075 28
28861 36076 36077 28
28862 36076 36078 28
28863 36076 36079 28
28864 36076 36080 28
28865 36081 36082 28
28866 36081 36083 28
28867 36081 36084 28
28868 36081 36085 28
28869 36086 36087 28
28870 36086 36088 28
28871 36086 36089 28
28872 36086 36090 28
28873 36091 36092 28
28874 36091 36093 28
28875 36091 36094 28
28876 36091 36095 28
28877 36096 36097 28
28878 36096 36098 28
28879 36096 36099 28
28880 36096 36100 28
28881 36101 36102 28
28882 36101 36103 28
28883 36101 36104 28
28884 36101 36105 28
28885 36106 36107 28
28886 36106 36108 28
28887 36106 36109 28
28888 36106 36110 28
28889 36111 36112 28
28890 36111 36113 28
28891 36111 36114 28
28892 36111 36115 28
28893 36116 36117 28
28894 36116 36118 28
28895 36116 36119 28
28896 36116 36120 28
28897 36121 36122 28
28898 36121 36123 28
28899 36121 36124 28
28900 36121 36125 28
28901 36126 36127 28
28902 36126 36128 28
28903 36126 36129 28
28904 36126 36130 28
28905 36131 36132 28
28906 36131 36133 28
28907 36131 36134 28
28908 36131 36135 28
28909 36136 36137 28
28910 36136 36138 28
28911 36136 36139 28
28912 36136 36140 28
28913 36141 36142 28
28914 36141 36143 28
28915 36141 36144 28
28916 36141 36145 28
28917 36146 36147 28
28918 36146 36148 28
28919 36146 36149 28
28920 36146 36150 28
28921 36151 36152 28
28922 36151 36153 28
28923 36151 36154 28
28924 36151 36155 28
28925 36156 36157 28
28926 36156 36158 28
28927 36156 36159 28
28928 36156 36160 28
28929 36161 36162 28
28930 36161 36163 28
28931 36161 36164 28
28932 36161 36165 28
28933 36166 36167 28
28934 36166 36168 28
28935 36166 36169 28
28936 36166 36170 28
28937 36171 36172 28
28938 36171 36173 28
28939 36171 36174 28
28940 36171 36175 28
28941 36176 36177 28
28942 36176 36178 28
28943 36176 36179 28
28944 36176 36180 28
28945 36181 36182 28
28946 36181 36183 28
28947 36181 36184 28
28948 36181 36185 28
28949 36186 36187 28
28950 36186 36188 28
28951 36186 36189 28
28952 36186 36190 28
28953 36191 36192 28
28954 36191 36193 28
28955 36191 36194 28
28956 36191 36195 28
28957 36196 36197 28
28958 36196 36198 28
28959 36196 36199 28
28960 36196 36200 28
28961 36201 36202 28
28962 36201 36203 28
28963 36201 36204 28
28964 36201 36205 28
28965 36206 36207 28
28966 36206 36208 28
28967 36206 36209 28
28968 36206 36210 28
28969 36211 36212 28
28970 36211 36213 28
28971 36211 36214 28
28972 36211 36215 28
28973 36216 36217 28
28974 36216 36218 28
28975 36216 36219 28
28976 36216 36220 28
28977 36221 36222 28
28978 36221 36223 28
28979 36221 36224 28
28980 36221 36225 28
28981 36226 36227 28
28982 36226 36228 28
28983 36226 36229 28
28984 36226 36230 28
28985 36231 36232 28
28986 36231 36233 28
28987 36231 36234 28
28988 36231 36235 28
28989 36236 36237 28
28990 36236 36238 28
28991 36236 36239 28
28992 36236 36240 28
28993 36241 36242 28
28994 36241 36243 28
28995 36241 36244 28
28996 36241 36245 28
28997 36246 36247 28
28998 36246 36248 28
28999 36246 36249 28
29000 36246 36250 28
29001 36251 36252 28
29002 36251 36253 28
29003 36251 36254 28
29004 36251 36255 28
29005 36256 36257 28
29006 36256 36258 28
29007 36256 36259 28
29008 36256 36260 28
29009 36261 36262 28
29010 36261 36263 28
29011 36261 36264 28
29012 36261 36265 28
29013 36266 36267 28
29014 36266 36268 28
29015 36266 36269 28
29016 36266 36270 28
29017 36271 36272 28
29018 36271 36273 28
29019 36271 36274 28
29020 36271 36275 28
29021 36276 36277 28
29022 36276 36278 28
29023 36276 36279 28
29024 36276 36280 28
29025 36281 36282 28
29026 36281 36283 28
29027 36281 36284 28
29028 36281 36285 28
29029 36286 36287 28
29030 36286 36288 28
29031 36286 36289 28
29032 36286 36290 28
29033 36291 36292 28
29034 36291 36293 28
29035 36291 36294 28
29036 36291 36295 28
29037 36296 36297 28
29038 36296 36298 28
29039 36296 36299 28
29040 36296 36300 28
29041 36301 36302 28
29042 36301 36303 28
29043 36301 36304 28
29044 36301 36305 28
29045 36306 36307 28
29046 36306 36308 28
29047 36306 36309 28
29048 36306 36310 28
29049 36311 36312 28
29050 36311 36313 28
29051 36311 36314 28
29052 36311 36315 28
29053 36316 36317 28
29054 36316 36318 28
29055 36316 36319 28
29056 36316 36320 28
29057 36321 36322 28
29058 36321 36323 28
29059 36321 36324 28
29060 36321 36325 28
29061 36326 36327 28
29062 36326 36328 28
29063 36326 36329 28
29064 36326 36330 28
29065 36331 36332 28
29066 36331 36333 28
29067 36331 36334 28
29068 36331 36335 28
29069 36336 36337 28
29070 36336 36338 28
29071 36336 36339 28
29072 36336 36340 28
29073 36341 36342 28
29074 36341 36343 28
29075 36341 36344 28
29076 36341 36345 28
29077 36346 36347 28
29078 36346 36348 28
29079 36346 36349 28
29080 36346 36350 28
29081 36351 36352 28
29082 36351 36353 28
29083 36351 36354 28
29084 36351 36355 28
29085 36356 36357 28
29086 36356 36358 28
29087 36356 36359 28
29088 36356 36360 28
29089 36361 36362 28
29090 36361 36363 28
29091 36361 36364 28
29092 36361 36365 28
29093 36366 36367 28
29094 36366 36368 28
29095 36366 36369 28
29096 36366 36370 28
29097 36371 36372 28
29098 36371 36373 28
29099 36371 36374 28
29100 36371 36375 28
29101 36376 36377 28
29102 36376 36378 28
29103 36376 36379 28
29104 36376 36380 28
29105 36381 36382 28
29106 36381 36383 28
29107 36381 36384 28
29108 36381 36385 28
29109 36386 36387 28
29110 36386 36388 28
29111 36386 36389 28
29112 36386 36390 28
29113 36391 36392 28
29114 36391 36393 28
29115 36391 36394 28
29116 36391 36395 28
29117 36396 36397 28
29118 36396 36398 28
29119 36396 36399 28
29120 36396 36400 28
29121 36401 36402 28
29122 36401 36403 28
29123 36401 36404 28
29124 36401 36405 28
29125 36406 36407 28
29126 36406 36408 28
29127 36406 36409 28
29128 36406 36410 28
29129 36411 36412 28
29130 36411 36413 28
29131 36411 36414 28
29132 36411 36415 28
29133 36416 36417 28
29134 36416 36418 28
29135 36416 36419 28
29136 36416 36420 28
29137 36421 36422 28
29138 36421 36423 28
29139 36421 36424 28
29140 36421 36425 28
29141 36426 36427 28
29142 36426 36428 28
29143 36426 36429 28
29144 36426 36430 28
29145 36431 36432 28
29146 36431 36433 28
29147 36431 36434 28
29148 36431 36435 28
29149 36436 36437 28
29150 36436 36438 28
29151 36436 36439 28
29152 36436 36440 28
29153 36441 36442 28
29154 36441 36443 28
29155 36441 36444 28
29156 36441 36445 28
29157 36446 36447 28
29158 36446 36448 28
29159 36446 36449 28
29160 36446 36450 28
29161 36451 36452 28
29162 36451 36453 28
29163 36451 36454 28
29164 36451 36455 28
29165 36456 36457 28
29166 36456 36458 28
29167 36456 36459 28
29168 36456 36460 28
29169 36461 36462 28
29170 36461 36463 28
29171 36461 36464 28
29172 36461 36465 28
29173 36466 36467 28
29174 36466 36468 28
29175 36466 36469 28
29176 36466 36470 28
29177 36471 36472 28
29178 36471 36473 28
29179 36471 36474 28
29180 36471 36475 28
29181 36476 36477 28
29182 36476 36478 28
29183 36476 36479 28
29184 36476 36480 28
29185 36481 36482 28
29186 36481 36483 28
29187 36481 36484 28
29188 36481 36485 28
29189 36486 36487 28
29190 36486 36488 28
29191 36486 36489 28
29192 36486 36490 28
29193 36491 36492 28
29194 36491 36493 28
29195 36491 36494 28
29196 36491 36495 28
29197 36496 36497 28
29198 36496 36498 28
29199 36496 36499 28
29200 36496 36500 28
29201 36501 36502 28
29202 36501 36503 28
29203 36501 36504 28
29204 36501 36505 28
29205 36506 36507 28
29206 36506 36508 28
29207 36506 36509 28
29208 36506 36510 28
29209 36511 36512 28
29210 36511 36513 28
29211 36511 36514 28
29212 36511 36515 28
29213 36516 36517 28
29214 36516 36518 28
29215 36516 36519 28
29216 36516 36520 28
29217 36521 36522 28
29218 36521 36523 28
29219 36521 36524 28
29220 36521 36525 28
29221 36526 36527 28
29222 36526 36528 28
29223 36526 36529 28
29224 36526 36530 28
29225 36531 36532 28
29226 36531 36533 28
29227 36531 36534 28
29228 36531 36535 28
29229 36536 36537 28
29230 36536 36538 28
29231 36536 36539 28
29232 36536 36540 28
29233 36541 36542 28
29234 36541 36543 28
29235 36541 36544 28
29236 36541 36545 28
29237 36546 36547 28
29238 36546 36548 28
29239 36546 36549 28
29240 36546 36550 28
29241 36551 36552 28
29242 36551 36553 28
29243 36551 36554 28
29244 36551 36555 28
29245 36556 36557 28
29246 36556 36558 28
29247 36556 36559 28
29248 36556 36560 28
29249 36561 36562 28
29250 36561 36563 28
29251 36561 36564 28
29252 36561 36565 28
29253 36566 36567 28
29254 36566 36568 28
29255 36566 36569 28
29256 36566 36570 28
29257 36571 36572 28
29258 36571 36573 28
29259 36571 36574 28
29260 36571 36575 28
29261 36576 36577 28
29262 36576 36578 28
29263 36576 36579 28
29264 36576 36580 28
29265 36581 36582 28
29266 36581 36583 28
29267 36581 36584 28
29268 36581 36585 28
29269 36586 36587 28
29270 36586 36588 28
29271 36586 36589 28
29272 36586 36590 28
29273 36591 36592 28
29274 36591 36593 28
29275 36591 36594 28
29276 36591 36595 28
29277 36596 36597 28
29278 36596 36598 28
29279 36596 36599 28
29280 36596 36600 28
29281 36601 36602 28
29282 36601 36603 28
29283 36601 36604 28
29284 36601 36605 28
29285 36606 36607 28
29286 36606 36608 28
29287 36606 36609 28
29288 36606 36610 28
29289 36611 36612 28
29290 36611 36613 28
29291 36611 36614 28
29292 36611 36615 28
29293 36616 36617 28
29294 36616 36618 28
29295 36616 36619 28
29296 36616 36620 28
29297 36621 36622 28
29298 36621 36623 28
29299 36621 36624 28
29300 36621 36625 28
29301 36626 36627 28
29302 36626 36628 28
29303 36626 36629 28
29304 36626 36630 28
29305 36631 36632 28
29306 36631 36633 28
29307 36631 36634 28
29308 36631 36635 28
29309 36636 36637 28
29310 36636 36638 28
29311 36636 36639 28
29312 36636 36640 28
29313 36641 36642 28
29314 36641 36643 28
29315 36641 36644 28
29316 36641 36645 28
29317 36646 36647 28
29318 36646 36648 28
29319 36646 36649 28
29320 36646 36650 28
29321 36651 36652 28
29322 36651 36653 28
29323 36651 36654 28
29324 36651 36655 28
29325 36656 36657 28
29326 36656 36658 28
29327 36656 36659 28
29328 36656 36660 28
29329 36661 36662 28
29330 36661 36663 28
29331 36661 36664 28
29332 36661 36665 28
29333 36666 36667 28
29334 36666 36668 28
29335 36666 36669 28
29336 36666 36670 28
29337 36671 36672 28
29338 36671 36673 28
29339 36671 36674 28
29340 36671 36675 28
29341 36676 36677 28
29342 36676 36678 28
29343 36676 36679 28
29344 36676 36680 28
29345 36681 36682 28
29346 36681 36683 28
29347 36681 36684 28
29348 36681 36685 28
29349 36686 36687 28
29350 36686 36688 28
29351 36686 36689 28
29352 36686 36690 28
29353 36691 36692 28
29354 36691 36693 28
29355 36691 36694 28
29356 36691 36695 28
29357 36696 36697 28
29358 36696 36698 28
29359 36696 36699 28
29360 36696 36700 28
29361 36701 36702 28
29362 36701 36703 28
29363 36701 36704 28
29364 36701 36705 28
29365 36706 36707 28
29366 36706 36708 28
29367 36706 36709 28
29368 36706 36710 28
29369 36711 36712 28
29370 36711 36713 28
29371 36711 36714 28
29372 36711 36715 28
29373 36716 36717 28
29374 36716 36718 28
29375 36716 36719 28
29376 36716 36720 28
29377 36721 36722 28
29378 36721 36723 28
29379 36721 36724 28
29380 36721 36725 28
29381 36726 36727 28
29382 36726 36728 28
29383 36726 36729 28
29384 36726 36730 28
29385 36731 36732 28
29386 36731 36733 28
29387 36731 36734 28
29388 36731 36735 28
29389 36736 36737 28
29390 36736 36738 28
29391 36736 36739 28
29392 36736 36740 28
29393 36741 36742 28
29394 36741 36743 28
29395 36741 36744 28
29396 36741 36745 28
29397 36746 36747 28
29398 36746 36748 28
29399 36746 36749 28
29400 36746 36750 28
29401 36751 36752 28
29402 36751 36753 28
29403 36751 36754 28
29404 36751 36755 28
29405 36756 36757 28
29406 36756 36758 28
29407 36756 36759 28
29408 36756 36760 28
29409 36761 36762 28
29410 36761 36763 28
29411 36761 36764 28
29412 36761 36765 28
29413 36766 36767 28
29414 36766 36768 28
29415 36766 36769 28
29416 36766 36770 28
29417 36771 36772 28
29418 36771 36773 28
29419 36771 36774 28
29420 36771 36775 28
29421 36776 36777 28
29422 36776 36778 28
29423 36776 36779 28
29424 36776 36780 28
29425 36781 36782 28
29426 36781 36783 28
29427 36781 36784 28
29428 36781 36785 28
29429 36786 36787 28
29430 36786 36788 28
29431 36786 36789 28
29432 36786 36790 28
29433 36791 36792 28
29434 36791 36793 28
29435 36791 36794 28
29436 36791 36795 28
29437 36796 36797 28
29438 36796 36798 28
29439 36796 36799 28
29440 36796 36800 28
29441 36801 36802 28
29442 36801 36803 28
29443 36801 36804 28
29444 36801 36805 28
29445 36806 36807 28
29446 36806 36808 28
29447 36806 36809 28
29448 36806 36810 28
29449 36811 36812 28
29450 36811 36813 28
29451 36811 36814 28
29452 36811 36815 28
29453 36816 36817 28
29454 36816 36818 28
29455 36816 36819 28
29456 36816 36820 28
29457 36821 36822 28
29458 36821 36823 28
29459 36821 36824 28
29460 36821 36825 28
29461 36826 36827 28
29462 36826 36828 28
29463 36826 36829 28
29464 36826 36830 28
29465 36831 36832 28
29466 36831 36833 28
29467 36831 36834 28
29468 36831 36835 28
29469 36836 36837 28
29470 36836 36838 28
29471 36836 36839 28
29472 36836 36840 28
29473 36841 36842 28
29474 36841 36843 28
29475 36841 36844 28
29476 36841 36845 28
29477 36846 36847 28
29478 36846 36848 28
29479 36846 36849 28
29480 36846 36850 28
29481 36851 36852 28
29482 36851 36853 28
29483 36851 36854 28
29484 36851 36855 28
29485 36856 36857 28
29486 36856 36858 28
29487 36856 36859 28
29488 36856 36860 28
29489 36861 36862 28
29490 36861 36863 28
29491 36861 36864 28
29492 36861 36865 28
29493 36866 36867 28
29494 36866 36868 28
29495 36866 36869 28
29496 36866 36870 28
29497 36871 36872 28
29498 36871 36873 28
29499 36871 36874 28
29500 36871 36875 28
29501 36876 36877 28
29502 36876 36878 28
29503 36876 36879 28
29504 36876 36880 28
29505 36881 36882 28
29506 36881 36883 28
29507 36881 36884 28
29508 36881 36885 28
29509 36886 36887 28
29510 36886 36888 28
29511 36886 36889 28
29512 36886 36890 28
29513 36891 36892 28
29514 36891 36893 28
29515 36891 36894 28
29516 36891 36895 28
29517 36896 36897 28
29518 36896 36898 28
29519 36896 36899 28
29520 36896 36900 28
29521 36901 36902 28
29522 36901 36903 28
29523 36901 36904 28
29524 36901 36905 28
29525 36906 36907 28
29526 36906 36908 28
29527 36906 36909 28
29528 36906 36910 28
29529 36911 36912 28
29530 36911 36913 28
29531 36911 36914 28
29532 36911 36915 28
29533 36916 36917 28
29534 36916 36918 28
29535 36916 36919 28
29536 36916 36920 28
29537 36921 36922 28
29538 36921 36923 28
29539 36921 36924 28
29540 36921 36925 28
29541 36926 36927 28
29542 36926 36928 28
29543 36926 36929 28
29544 36926 36930 28
29545 36931 36932 28
29546 36931 36933 28
29547 36931 36934 28
29548 36931 36935 28
29549 36936 36937 28
29550 36936 36938 28
29551 36936 36939 28
29552 36936 36940 28
29553 36941 36942 28
29554 36941 36943 28
29555 36941 36944 28
29556 36941 36945 28
29557 36946 36947 28
29558 36946 36948 28
29559 36946 36949 28
29560 36946 36950 28
29561 36951 36952 28
29562 36951 36953 28
29563 36951 36954 28
29564 36951 36955 28
29565 36956 36957 28
29566 36956 36958 28
29567 36956 36959 28
29568 36956 36960 28
29569 36961 36962 28
29570 36961 36963 28
29571 36961 36964 28
29572 36961 36965 28
29573 36966 36967 28
29574 36966 36968 28
29575 36966 36969 28
29576 36966 36970 28
29577 36971 36972 28
29578 36971 36973 28
29579 36971 36974 28
29580 36971 36975 28
29581 36976 36977 28
29582 36976 36978 28
29583 36976 36979 28
29584 36976 36980 28
29585 36981 36982 28
29586 36981 36983 28
29587 36981 36984 28
29588 36981 36985 28
29589 36986 36987 28
29590 36986 36988 28
29591 36986 36989 28
29592 36986 36990 28
29593 36991 36992 28
29594 36991 36993 28
29595 36991 36994 28
29596 36991 36995 28
29597 36996 36997 28
29598 36996 36998 28
29599 36996 36999 28
29600 36996 37000 28
29601 37001 37002 28
29602 37001 37003 28
29603 37001 37004 28
29604 37001 37005 28
29605 37006 37007 28
29606 37006 37008 28
29607 37006 37009 28
29608 37006 37010 28
29609 37011 37012 28
29610 37011 37013 28
29611 37011 37014 28
29612 37011 37015 28
29613 37016 37017 28
29614 37016 37018 28
29615 37016 37019 28
29616 37016 37020 28
29617 37021 37022 28
29618 37021 37023 28
29619 37021 37024 28
29620 37021 37025 28
29621 37026 37027 28
29622 37026 37028 28
29623 37026 37029 28
29624 37026 37030 28
29625 37031 37032 28
29626 37031 37033 28
29627 37031 37034 28
29628 37031 37035 28
29629 37036 37037 28
29630 37036 37038 28
29631 37036 37039 28
29632 37036 37040 28
29633 37041 37042 28
29634 37041 37043 28
29635 37041 37044 28
29636 37041 37045 28
29637 37046 37047 28
29638 37046 37048 28
29639 37046 37049 28
29640 37046 37050 28
29641 37051 37052 28
29642 37051 37053 28
29643 37051 37054 28
29644 37051 37055 28
29645 37056 37057 28
29646 37056 37058 28
29647 37056 37059 28
29648 37056 37060 28
29649 37061 37062 28
29650 37061 37063 28
29651 37061 37064 28
29652 37061 37065 28
29653 37066 37067 28
29654 37066 37068 28
29655 37066 37069 28
29656 37066 37070 28
29657 37071 37072 28
29658 37071 37073 28
29659 37071 37074 28
29660 37071 37075 28
29661 37076 37077 28
29662 37076 37078 28
29663 37076 37079 28
29664 37076 37080 28
29665 37081 37082 28
29666 37081 37083 28
29667 37081 37084 28
29668 37081 37085 28
29669 37086 37087 28
29670 37086 37088 28
29671 37086 37089 28
29672 37086 37090 28
29673 37091 37092 28
29674 37091 37093 28
29675 37091 37094 28
29676 37091 37095 28
29677 37096 37097 28
29678 37096 37098 28
29679 37096 37099 28
29680 37096 37100 28
29681 37101 37102 28
29682 37101 37103 28
29683 37101 37104 28
29684 37101 37105 28
29685 37106 37107 28
29686 37106 37108 28
29687 37106 37109 28
29688 37106 37110 28
29689 37111 37112 28
29690 37111 37113 28
29691 37111 37114 28
29692 37111 37115 28
29693 37116 37117 28
29694 37116 37118 28
29695 37116 37119 28
29696 37116 37120 28
29697 37121 37122 28
29698 37121 37123 28
29699 37121 37124 28
29700 37121 37125 28
29701 37126 37127 28
29702 37126 37128 28
29703 37126 37129 28
29704 37126 37130 28
29705 37131 37132 28
29706 37131 37133 28
29707 37131 37134 28
29708 37131 37135 28
29709 37136 37137 28
29710 37136 37138 28
29711 37136 37139 28
29712 37136 37140 28
29713 37141 37142 28
29714 37141 37143 28
29715 37141 37144 28
29716 37141 37145 28
29717 37146 37147 28
29718 37146 37148 28
29719 37146 37149 28
29720 37146 37150 28
29721 37151 37152 28
29722 37151 37153 28
29723 37151 37154 28
29724 37151 37155 28
29725 37156 37157 28
29726 37156 37158 28
29727 37156 37159 28
29728 37156 37160 28
29729 37161 37162 28
29730 37161 37163 28
29731 37161 37164 28
29732 37161 37165 28
29733 37166 37167 28
29734 37166 37168 28
29735 37166 37169 28
29736 37166 37170 28
29737 37171 37172 28
29738 37171 37173 28
29739 37171 37174 28
29740 37171 37175 28
29741 37176 37177 28
29742 37176 37178 28
29743 37176 37179 28
29744 37176 37180 28
29745 37181 37182 28
29746 37181 37183 28
29747 37181 37184 28
29748 37181 37185 28
29749 37186 37187 28
29750 37186 37188 28
29751 37186 37189 28
29752 37186 37190 28
29753 37191 37192 28
29754 37191 37193 28
29755 37191 37194 28
29756 37191 37195 28
29757 37196 37197 28
29758 37196 37198 28
29759 37196 37199 28
29760 37196 37200 28
29761 37201 37202 28
29762 37201 37203 28
29763 37201 37204 28
29764 37201 37205 28
29765 37206 37207 28
29766 37206 37208 28
29767 37206 37209 28
29768 37206 37210 28
29769 37211 37212 28
29770 37211 37213 28
29771 37211 37214 28
29772 37211 37215 28
29773 37216 37217 28
29774 37216 37218 28
29775 37216 37219 28
29776 37216 37220 28
29777 37221 37222 28
29778 37221 37223 28
29779 37221 37224 28
29780 37221 37225 28
29781 37226 37227 28
29782 37226 37228 28
29783 37226 37229 28
29784 37226 37230 28
29785 37231 37232 28
29786 37231 37233 28
29787 37231 37234 28
29788 37231 37235 28
29789 37236 37237 28
29790 37236 37238 28
29791 37236 37239 28
29792 37236 37240 28
29793 37241 37242 28
29794 37241 37243 28
29795 37241 37244 28
29796 37241 37245 28
29797 37246 37247 28
29798 37246 37248 28
29799 37246 37249 28
29800 37246 37250 28
29801 37251 37252 28
29802 37251 37253 28
29803 37251 37254 28
29804 37251 37255 28
29805 37256 37257 28
29806 37256 37258 28
29807 37256 37259 28
29808 37256 37260 28
29809 37261 37262 28
29810 37261 37263 28
29811 37261 37264 28
29812 37261 37265 28
29813 37266 37267 28
29814 37266 37268 28
29815 37266 37269 28
29816 37266 37270 28
29817 37271 37272 28
29818 37271 37273 28
29819 37271 37274 28
29820 37271 37275 28
29821 37276 37277 28
29822 37276 37278 28
29823 37276 37279 28
29824 37276 37280 28
29825 37281 37282 28
29826 37281 37283 28
29827 37281 37284 28
29828 37281 37285 28
29829 37286 37287 28
29830 37286 37288 28
29831 37286 37289 28
29832 37286 37290 28
29833 37291 37292 28
29834 37291 37293 28
29835 37291 37294 28
29836 37291 37295 28
29837 37296 37297 28
29838 37296 37298 28
29839 37296 37299 28
29840 37296 37300 28
29841 37301 37302 28
29842 37301 37303 28
29843 37301 37304 28
29844 37301 37305 28
29845 37306 37307 28
29846 37306 37308 28
29847 37306 37309 28
29848 37306 37310 28
29849 37311 37312 28
29850 37311 37313 28
29851 37311 37314 28
29852 37311 37315 28
29853 37316 37317 28
29854 37316 37318 28
29855 37316 37319 28
29856 37316 37320 28
29857 37321 37322 28
29858 37321 37323 28
29859 37321 37324 28
29860 37321 37325 28
29861 37326 37327 28
29862 37326 37328 28
29863 37326 37329 28
29864 37326 37330 28
29865 37331 37332 28
29866 37331 37333 28
29867 37331 37334 28
29868 37331 37335 28
29869 37336 37337 28
29870 37336 37338 28
29871 37336 37339 28
29872 37336 37340 28
29873 37341 37342 28
29874 37341 37343 28
29875 37341 37344 28
29876 37341 37345 28
29877 37346 37347 28
29878 37346 37348 28
29879 37346 37349 28
29880 37346 37350 28
29881 37351 37352 28
29882 37351 37353 28
29883 37351 37354 28
29884 37351 37355 28
29885 37356 37357 28
29886 37356 37358 28
29887 37356 37359 28
29888 37356 37360 28
29889 37361 37362 28
29890 37361 37363 28
29891 37361 37364 28
29892 37361 37365 28
29893 37366 37367 28
29894 37366 37368 28
29895 37366 37369 28
29896 37366 37370 28
29897 37371 37372 28
29898 37371 37373 28
29899 37371 37374 28
29900 37371 37375 28
29901 37376 37377 28
29902 37376 37378 28
29903 37376 37379 28
29904 37376 37380 28
29905 37381 37382 28
29906 37381 37383 28
29907 37381 37384 28
29908 37381 37385 28
29909 37386 37387 28
29910 37386 37388 28
29911 37386 37389 28
29912 37386 37390 28
29913 37391 37392 28
29914 37391 37393 28
29915 37391 37394 28
29916 37391 37395 28
29917 37396 37397 28
29918 37396 37398 28
29919 37396 37399 28
29920 37396 37400 28
29921 37401 37402 28
29922 37401 37403 28
29923 37401 37404 28
29924 37401 37405 28
29925 37406 37407 28
29926 37406 37408 28
29927 37406 37409 28
29928 37406 37410 28
29929 37411 37412 28
29930 37411 37413 28
29931 37411 37414 28
29932 37411 37415 28
29933 37416 37417 28
29934 37416 37418 28
29935 37416 37419 28
29936 37416 37420 28
29937 37421 37422 28
29938 37421 37423 28
29939 37421 37424 28
29940 37421 37425 28
29941 37426 37427 28
29942 37426 37428 28
29943 37426 37429 28
29944 37426 37430 28
29945 37431 37432 28
29946 37431 37433 28
29947 37431 37434 28
29948 37431 37435 28
29949 37436 37437 28
29950 37436 37438 28
29951 37436 37439 28
29952 37436 37440 28
29953 37441 37442 28
29954 37441 37443 28
29955 37441 37444 28
29956 37441 37445 28
29957 37446 37447 28
29958 37446 37448 28
29959 37446 37449 28
29960 37446 37450 28
29961 37451 37452 28
29962 37451 37453 28
29963 37451 37454 28
29964 37451 37455 28
29965 37456 37457 28
29966 37456 37458 28
29967 37456 37459 28
29968 37456 37460 28
29969 37461 37462 28
29970 37461 37463 28
29971 37461 37464 28
29972 37461 37465 28
29973 37466 37467 28
29974 37466 37468 28
29975 37466 37469 28
29976 37466 37470 28
29977 37471 37472 28
29978 37471 37473 28
29979 37471 37474 28
29980 37471 37475 28
29981 37476 37477 28
29982 37476 37478 28
29983 37476 37479 28
29984 37476 37480 28
29985 37481 37482 28
29986 37481 37483 28
29987 37481 37484 28
29988 37481 37485 28
29989 37486 37487 28
29990 37486 37488 28
29991 37486 37489 28
29992 37486 37490 28
29993 37491 37492 28
29994 37491 37493 28
29995 37491 37494 28
29996 37491 37495 28
29997 37496 37497 28
29998 37496 37498 28
29999 37496 37499 28
30000 37496 37500 28
@<TRIPOS>CRYSIN
112.68370954604231 112.68370954604231 112.68370954604231 90 90 90 1 1
