@<TRIPOS>MOLECULE
mol
37500 30000
SMALL
USER_CHARGES


@<TRIPOS>ATOM
1 C 95.69838171552195 41.42819416528505 55.26069031799324 C 0.0 **** -0.24
2 H 96.65305460163145 41.71963615602153 55.698080253327646 H 0.0 **** 0.06
3 H 95.33390751230436 42.22867476292463 54.61724173701958 H 0.0 **** 0.06
4 H 94.97640547711826 41.24318585728953 56.055865111833555 H 0.0 **** 0.06
5 H 95.8313387144001 40.520514705685 54.67172751470514 H 0.0 **** 0.06
6 C 84.50587325906329 81.13333590819428 94.41555700364806 C 0.0 **** -0.24
7 H 84.89014826371658 80.44458958115737 93.6635151666474 H 0.0 **** 0.06
8 H 84.9268545991884 82.12564368949273 94.24992556904681 H 0.0 **** 0.06
9 H 84.78733685202764 80.78083220610915 95.40826499708443 H 0.0 **** 0.06
10 H 83.41913095760793 81.18218368376839 94.34151758334377 H 0.0 **** 0.06
11 C 51.27672737914247 10.665502364733015 43.306603074137115 C 0.0 **** -0.24
12 H 50.39078668570431 10.064075354085475 43.50950540009208 H 0.0 **** 0.06
13 H 51.035394197947994 11.428685562146285 42.56566143394227 H 0.0 **** 0.06
14 H 52.070305304869635 10.024918927649964 42.9218854262007 H 0.0 **** 0.06
15 H 51.60949350440447 11.144443967312924 44.22732961691344 H 0.0 **** 0.06
16 C 41.309861731861076 74.08493391507653 100.06591027404885 C 0.0 **** -0.24
17 H 40.453312126874664 74.28623109473205 100.7091489109198 H 0.0 **** 0.06
18 H 40.961354406791344 73.84034480710136 99.0624061363231 H 0.0 **** 0.06
19 H 41.87742728271144 73.24583211935106 100.46942768539043 H 0.0 **** 0.06
20 H 41.94762645972585 74.96824033092344 100.02410488525837 H 0.0 **** 0.06
21 C 12.916982954051306 21.308005710103515 87.73040902257122 C 0.0 **** -0.24
22 H 13.613227878579721 22.13840248320261 87.61429304259775 H 0.0 **** 0.06
23 H 12.397147052291103 21.13456923734978 86.78759079358272 H 0.0 **** 0.06
24 H 12.191440484017463 21.54827428382484 88.50681279006729 H 0.0 **** 0.06
25 H 13.466980894021901 20.410118154509547 88.01203453776274 H 0.0 **** 0.06
26 C 104.83740237234741 48.98827953298151 29.191844286014884 C 0.0 **** -0.24
27 H 103.7755394027921 48.8000144873523 29.355908692051827 H 0.0 **** 0.06
28 H 105.41898146034461 48.478482123546414 29.9602765363301 H 0.0 **** 0.06
29 H 105.02777759950624 50.05961941624492 29.241772022436493 H 0.0 **** 0.06
30 H 105.12350365083651 48.613150924856555 28.209699046524804 H 0.0 **** 0.06
31 C 24.37340445558128 48.86436252306589 91.46494657393274 C 0.0 **** -0.24
32 H 23.45466870097819 49.43298585855973 91.31854683197082 H 0.0 **** 0.06
33 H 24.65801832069014 48.386529804557426 90.52769177599012 H 0.0 **** 0.06
34 H 24.21194176639664 48.103175719419596 92.22782280847059 H 0.0 **** 0.06
35 H 25.168858640255884 49.53775398427513 91.78583341628797 H 0.0 **** 0.06
36 C 59.83084619105318 93.7734208530589 58.39188370118726 C 0.0 **** -0.24
37 H 60.858003087045105 93.80509369424307 58.028145764117106 H 0.0 **** 0.06
38 H 59.249754896680585 94.55835886140984 57.90783518895527 H 0.0 **** 0.06
39 H 59.823004934825406 93.92779720560061 59.471290591115206 H 0.0 **** 0.06
40 H 59.39395476918823 92.80153506241815 58.160908244513216 H 0.0 **** 0.06
41 C 63.61308121058387 96.06395203552302 4.41774425381962 C 0.0 **** -0.24
42 H 64.30824852060869 95.79811649994859 3.6225169146913316 H 0.0 **** 0.06
43 H 63.53299985561779 97.1491025971515 4.484706813321679 H 0.0 **** 0.06
44 H 63.97617875325906 95.66643162504933 5.365929083101804 H 0.0 **** 0.06
45 H 62.632704500161296 95.64034195789309 4.198769914555953 H 0.0 **** 0.06
46 C 107.51581147732614 71.29697230350598 90.63575758682151 C 0.0 **** -0.24
47 H 107.88427731710229 72.28916087724383 90.37416531312921 H 0.0 **** 0.06
48 H 106.57287848160875 71.11293450272063 90.12073118710542 H 0.0 **** 0.06
49 H 107.35932542894611 71.2409173350976 91.71283449678184 H 0.0 **** 0.06
50 H 108.24707934231967 70.5473054666877 90.3353368484499 H 0.0 **** 0.06
51 C 29.98412135622214 16.313771006829967 13.27122655156171 C 0.0 **** -0.24
52 H 30.04614412774192 15.295536590118104 12.88714246760361 H 0.0 **** 0.06
53 H 30.56614835265465 16.39096284838905 14.189242725106283 H 0.0 **** 0.06
54 H 28.941888421704178 16.559856263391737 13.47867383627937 H 0.0 **** 0.06
55 H 30.37992793992379 17.006706794888657 12.528722090039736 H 0.0 **** 0.06
56 C 108.7057439548828 60.63474969031685 48.42451840308955 C 0.0 **** -0.24
57 H 108.25514406519521 60.535344805141804 49.412660195802914 H 0.0 **** 0.06
58 H 108.72820134571312 59.6602646921571 47.936715795012745 H 0.0 **** 0.06
59 H 109.7217807514892 61.01511936737033 48.526448934681795 H 0.0 **** 0.06
60 H 108.11557903495891 61.328507629386294 47.82582481088752 H 0.0 **** 0.06
61 C 32.661751659996135 18.163251978684542 39.256793964677414 C 0.0 **** -0.24
62 H 32.80909204773302 19.22062095994069 39.03647059241811 H 0.0 **** 0.06
63 H 33.62619345408183 17.694667645972814 39.448768973152454 H 0.0 **** 0.06
64 H 32.18429615345184 17.67879434940376 38.405354153615185 H 0.0 **** 0.06
65 H 32.02583472452004 18.062001993798873 40.13664159766113 H 0.0 **** 0.06
66 C 4.61597567749061 91.6046671472543 22.73558069020516 C 0.0 **** -0.24
67 H 3.6551477322263963 91.10314289442222 22.61714991974187 H 0.0 **** 0.06
68 H 5.3673760629416165 91.09624193567917 22.130053580833884 H 0.0 **** 0.06
69 H 4.9133554111721764 91.57696496241718 23.783969275466315 H 0.0 **** 0.06
70 H 4.526681823468607 92.64062153824612 22.409328004809364 H 0.0 **** 0.06
71 C 7.088987506283161 13.540954365285351 75.06451226583654 C 0.0 **** -0.24
72 H 6.587818471314108 13.02100594060434 75.8810218928367 H 0.0 **** 0.06
73 H 7.345441719401265 12.826082418265159 74.28268743531405 H 0.0 **** 0.06
74 H 7.997268963070496 14.013829985294098 75.43765856566525 H 0.0 **** 0.06
75 H 6.424205347068664 14.302198759506158 74.65650200285636 H 0.0 **** 0.06
76 C 31.750790217879143 39.29504493868856 6.28528229110016 C 0.0 **** -0.24
77 H 30.96378518922117 38.55859547829098 6.118860911131989 H 0.0 **** 0.06
78 H 31.454726438149436 39.96820342614561 7.08967063482325 H 0.0 **** 0.06
79 H 31.910679057895607 39.86806700828063 5.371353928074129 H 0.0 **** 0.06
80 H 32.67353026242017 38.78374743556992 6.55970971214748 H 0.0 **** 0.06
81 C 36.43010226968917 94.26612424842773 97.2390104719438 C 0.0 **** -0.24
82 H 35.91366697149603 95.13815958005284 96.83552839330144 H 0.0 **** 0.06
83 H 35.98881209424022 93.99368251432554 98.19742957938485 H 0.0 **** 0.06
84 H 37.485242885763995 94.50218922671837 97.37676871764324 H 0.0 **** 0.06
85 H 36.33224326732139 93.43296984771985 96.54291917029744 H 0.0 **** 0.06
86 C 18.64880812638152 87.65023470099828 88.94096812163708 C 0.0 **** -0.24
87 H 18.795412993282593 88.63931536488492 89.3741564768404 H 0.0 **** 0.06
88 H 18.270478281021436 87.75226465892639 87.92345291943809 H 0.0 **** 0.06
89 H 17.929859737553667 87.09402162259225 89.54303206299528 H 0.0 **** 0.06
90 H 19.598697073289294 87.11589196219008 88.92467221683734 H 0.0 **** 0.06
91 C 103.81961208376043 72.77230816047461 26.391269273491616 C 0.0 **** -0.24
92 H 103.13422922430325 72.4112843997608 25.62430648243329 H 0.0 **** 0.06
93 H 104.75015421009255 72.20510518701917 26.342628088323043 H 0.0 **** 0.06
94 H 103.36616672429895 72.64293278136847 27.37364700866746 H 0.0 **** 0.06
95 H 104.02942492843599 73.82815388026893 26.223731046321397 H 0.0 **** 0.06
96 C 26.809576645288104 69.57945886279134 19.214512328726244 C 0.0 **** -0.24
97 H 25.88974020404367 68.99894429248491 19.13321308266009 H 0.0 **** 0.06
98 H 27.65194674410374 68.90456265084651 19.366780051215954 H 0.0 **** 0.06
99 H 26.733482289631127 70.2638218140039 20.059619862865247 H 0.0 **** 0.06
100 H 26.96017093961649 70.14909200631507 18.297989483701144 H 0.0 **** 0.06
101 C 88.29787166397392 108.09866827197777 74.34579634525971 C 0.0 **** -0.24
102 H 87.77585775661822 108.23583429907632 73.39939862919584 H 0.0 **** 0.06
103 H 88.16515324739575 107.07287486080264 74.6889383080823 H 0.0 **** 0.06
104 H 87.89054293350503 108.78651384591888 75.0874994915963 H 0.0 **** 0.06
105 H 89.35958745779601 108.30156261562155 74.20670223066827 H 0.0 **** 0.06
106 C 93.07911477186015 110.25089079720185 74.86203038374481 C 0.0 **** -0.24
107 H 92.01270295251766 110.16513813948994 74.65042436183839 H 0.0 **** 0.06
108 H 93.26802423369541 109.96465375312293 75.8966947273529 H 0.0 **** 0.06
109 H 93.39843325771083 111.28012723480326 74.7045448577592 H 0.0 **** 0.06
110 H 93.6356034417156 109.59190898691988 74.19469229487157 H 0.0 **** 0.06
111 C 67.00427376959539 109.74005765336014 60.69926070528365 C 0.0 **** -0.24
112 H 67.01895476781927 109.88091237584679 59.61835082778356 H 0.0 **** 0.06
113 H 67.41041406996558 110.62711143479225 61.18546784482072 H 0.0 **** 0.06
114 H 67.60972059374289 108.87240477715004 60.96094438725993 H 0.0 **** 0.06
115 H 65.97788597500572 109.58172072159003 61.031137598439784 H 0.0 **** 0.06
116 C 88.58916690413272 64.36492997816993 7.3607161405210775 C 0.0 **** -0.24
117 H 89.05058870702501 63.39872804132335 7.564503929559237 H 0.0 **** 0.06
118 H 89.13882017600271 64.86937405339103 6.564726007373622 H 0.0 **** 0.06
119 H 88.61399694594668 64.97627414358135 8.262698126780663 H 0.0 **** 0.06
120 H 87.55535955021529 64.21642577156513 7.050281701315413 H 0.0 **** 0.06
121 C 78.63046557678268 46.94495141193897 48.202392223460095 C 0.0 **** -0.24
122 H 78.33571388619944 47.9830367794051 48.04814258132626 H 0.0 **** 0.06
123 H 79.70766855435795 46.84883725529403 48.06284440079557 H 0.0 **** 0.06
124 H 78.11293471779192 46.309735749100014 47.482928084770435 H 0.0 **** 0.06
125 H 78.36596313929505 46.637939224843535 49.214327357630225 H 0.0 **** 0.06
126 C 42.054594429237625 81.74613413008487 103.2391255615147 C 0.0 **** -0.24
127 H 42.95350414643042 82.35722979914064 103.15456101937187 H 0.0 **** 0.06
128 H 42.16899727688323 81.044932683838 104.0662399983339 H 0.0 **** 0.06
129 H 41.90180857977484 81.19346997519014 102.31238475410858 H 0.0 **** 0.06
130 H 41.19437200167778 82.3902215736747 103.42509743571208 H 0.0 **** 0.06
131 C 94.67751287581542 57.00823773068009 51.931603901725225 C 0.0 **** -0.24
132 H 93.79426209533322 57.60354760198104 51.69957166069594 H 0.0 **** 0.06
133 H 95.12070457643094 56.640611884454195 51.00589708771878 H 0.0 **** 0.06
134 H 94.39174234229813 56.16356374732688 52.55872016801973 H 0.0 **** 0.06
135 H 95.40253999827084 57.625783865150495 52.4620105270335 H 0.0 **** 0.06
136 C 43.55353763448369 65.98934645235045 0.08980615324399821 C 0.0 **** -0.24
137 H 42.99991064971178 65.05571222169404 0.18032648103712745 H 0.0 **** 0.06
138 H 43.072175475206336 66.75780414605681 0.6961386243659149 H 0.0 **** 0.06
139 H 43.567277219082555 66.30468249628386 -0.9531507485058768 H 0.0 **** 0.06
140 H 44.57553949093996 65.84035564710206 0.4376619515024487 H 0.0 **** 0.06
141 C 38.59040116777118 46.35582052724294 87.77197165799517 C 0.0 **** -0.24
142 H 37.73628977253523 46.411219432026215 88.4468919623038 H 0.0 **** 0.06
143 H 38.62957441732226 45.365921854892584 87.31636782532473 H 0.0 **** 0.06
144 H 39.507677390833976 46.5360658248748 88.33091137239045 H 0.0 **** 0.06
145 H 38.485881902994834 47.11091399436534 86.9921220770093 H 0.0 **** 0.06
146 C 13.999066397797705 20.194637205961442 59.25887153127735 C 0.0 **** -0.24
147 H 15.055917183580494 20.437545286484976 59.15053967431572 H 0.0 **** 0.06
148 H 13.625436564707663 20.611431094552643 60.19509181552209 H 0.0 **** 0.06
149 H 13.873789481239715 19.112250274075137 59.267469018710884 H 0.0 **** 0.06
150 H 13.442051558817418 20.618917280434488 58.42399574480823 H 0.0 **** 0.06
151 C 88.02253453484724 40.23766325684922 82.52567674974154 C 0.0 **** -0.24
152 H 87.53060409398825 39.32596234830186 82.8631372285684 H 0.0 **** 0.06
153 H 88.33651742888836 40.822716865032675 83.39115513841014 H 0.0 **** 0.06
154 H 87.32809620383364 40.82380424930187 81.92364778007243 H 0.0 **** 0.06
155 H 88.89526584290167 39.97932684909635 81.92600843226262 H 0.0 **** 0.06
156 C 85.56354893618453 103.18241009747192 20.749710929388193 C 0.0 **** -0.24
157 H 84.69636286696948 102.62671643622349 20.39427519724278 H 0.0 **** 0.06
158 H 86.45782123916285 102.56795968114236 20.641352673607102 H 0.0 **** 0.06
159 H 85.42439788703655 103.44130951745028 21.79923119917351 H 0.0 **** 0.06
160 H 85.67553965757833 104.09386957561857 20.162588774050626 H 0.0 **** 0.06
161 C 93.6022981460996 39.512782731731036 5.905229312451567 C 0.0 **** -0.24
162 H 94.35811933005027 39.041990094569826 5.277824112959479 H 0.0 **** 0.06
163 H 93.76986770028137 39.236185764104846 6.946582441320857 H 0.0 **** 0.06
164 H 92.6126329885571 39.177305478798615 5.594008076654774 H 0.0 **** 0.06
165 H 93.66691251131101 40.59611120805499 5.802325759734657 H 0.0 **** 0.06
166 C 77.02777741909063 42.12122716641869 17.5769243038319 C 0.0 **** -0.24
167 H 77.45401524683632 41.1174156739105 17.580473267473835 H 0.0 **** 0.06
168 H 76.59538365796499 42.3270020456967 16.59718499095479 H 0.0 **** 0.06
169 H 77.80999613412627 42.84870663191785 17.789417003837094 H 0.0 **** 0.06
170 H 76.2516801809507 42.188630346822606 18.338608993367114 H 0.0 **** 0.06
171 C 94.86958732845135 27.530608384913727 102.19234386765103 C 0.0 **** -0.24
172 H 95.45011068872992 27.850102000011056 103.05777450462568 H 0.0 **** 0.06
173 H 94.4817766539077 28.405935024041227 101.67111081407776 H 0.0 **** 0.06
174 H 94.03913263139185 26.906365506366967 102.52185038770278 H 0.0 **** 0.06
175 H 95.50797791177943 26.960055690405525 101.51738324290847 H 0.0 **** 0.06
176 C 30.486321054149528 47.13394345601279 79.87666589218611 C 0.0 **** -0.24
177 H 29.586225641114368 47.74076423405 79.9810573803586 H 0.0 **** 0.06
178 H 30.59347587937708 46.81909468201979 78.83849160981441 H 0.0 **** 0.06
179 H 30.40644594159238 46.25452208296058 80.5156555205437 H 0.0 **** 0.06
180 H 31.35572377873774 47.720265399062235 80.17117417091742 H 0.0 **** 0.06
181 C 87.7417479825208 29.364887126103227 42.62326931560705 C 0.0 **** -0.24
182 H 88.46471153671153 30.00271223157108 42.1132363335704 H 0.0 **** 0.06
183 H 87.49073559626271 28.51759037022166 41.98473212118273 H 0.0 **** 0.06
184 H 86.84014588986776 29.938210215782284 42.837948172366396 H 0.0 **** 0.06
185 H 88.17282365121955 29.002316204624307 43.55600710586262 H 0.0 **** 0.06
186 C 76.44936697925007 52.3511847454856 57.171508510197405 C 0.0 **** -0.24
187 H 75.93536776476623 53.004705016887044 56.46572889882145 H 0.0 **** 0.06
188 H 77.01719573143777 51.599530796672894 56.621956285669945 H 0.0 **** 0.06
189 H 75.71698184935278 51.85805363427971 57.80962714574919 H 0.0 **** 0.06
190 H 77.12774014331671 52.942316176033245 57.78628260471531 H 0.0 **** 0.06
191 C 104.55231131074596 78.48184506344654 49.805395654522556 C 0.0 **** -0.24
192 H 104.9573465532212 78.72916472628283 50.7864365029846 H 0.0 **** 0.06
193 H 104.84615179425664 77.46608161476424 49.537738781686755 H 0.0 **** 0.06
194 H 104.940447082432 79.18083481436686 49.06461047823137 H 0.0 **** 0.06
195 H 103.46427824326351 78.54947783298502 49.83407735867354 H 0.0 **** 0.06
196 C 96.32560908236037 93.1142741411455 37.71653661455477 C 0.0 **** -0.24
197 H 96.37779300101519 93.26910318806034 36.63854655449287 H 0.0 **** 0.06
198 H 96.95764640899682 92.26947477109181 37.99279852474467 H 0.0 **** 0.06
199 H 95.29393884364517 92.90545310031587 38.00320039838981 H 0.0 **** 0.06
200 H 96.6704788728343 94.01133721227103 38.22951257931858 H 0.0 **** 0.06
201 C 60.16047884684245 59.116618324024216 59.780164563075985 C 0.0 **** -0.24
202 H 60.37839687345934 58.572845059889715 60.69929844709391 H 0.0 **** 0.06
203 H 60.30654630638509 58.456727543531116 58.92494576574876 H 0.0 **** 0.06
204 H 60.82978972550822 59.97292493504972 59.697323345632384 H 0.0 **** 0.06
205 H 59.12688365183837 59.46354216249125 59.80040324719498 H 0.0 **** 0.06
206 C 49.48078617055657 23.979438911416423 20.714211286247462 C 0.0 **** -0.24
207 H 49.74876166596903 24.03817017854442 19.658904437200334 H 0.0 **** 0.06
208 H 50.281286145082134 24.407635413082602 21.316554395759567 H 0.0 **** 0.06
209 H 49.33334962870953 22.935865429868016 20.993305563136374 H 0.0 **** 0.06
210 H 48.55861451572693 24.534886826469233 20.88487405832427 H 0.0 **** 0.06
211 C 5.837272907703266 95.2642003865659 0.45562166018586936 C 0.0 **** -0.24
212 H 4.967592111164379 95.22838197535249 1.1118541599070113 H 0.0 **** 0.06
213 H 5.6984954548461815 96.04833640083778 -0.28814592587690413 H 0.0 **** 0.06
214 H 5.9538352446961085 94.30338142803485 -0.04556181357716582 H 0.0 **** 0.06
215 H 6.7293674885889345 95.47614869221454 1.0451493661387303 H 0.0 **** 0.06
216 C 83.68961362724508 4.202145948462999 37.5268055382069 C 0.0 **** -0.24
217 H 82.89170895564428 4.835067931199447 37.91474833354151 H 0.0 **** 0.06
218 H 83.99785308144612 3.4931025312359196 38.29525111936469 H 0.0 **** 0.06
219 H 84.53953898206942 4.822897620712411 37.24143904304763 H 0.0 **** 0.06
220 H 83.32866279626336 3.6575746692824964 36.6534342382307 H 0.0 **** 0.06
221 C 63.480901971933264 110.17229746395432 9.938934949551824 C 0.0 **** -0.24
222 H 62.7042305746231 110.91942966613829 10.101703913437813 H 0.0 **** 0.06
223 H 63.345747867380084 109.71640033655598 8.957729595020135 H 0.0 **** 0.06
224 H 63.412753462685714 109.4039507587492 10.709368513535647 H 0.0 **** 0.06
225 H 64.45949898016514 110.64915510530693 9.987136404458521 H 0.0 **** 0.06
226 C 53.317207706650834 77.20370526347381 21.48832749260015 C 0.0 **** -0.24
227 H 53.797619515532546 78.12771141100507 21.16806226307557 H 0.0 **** 0.06
228 H 52.69825712336632 77.40061345321095 22.363696028744698 H 0.0 **** 0.06
229 H 54.08011608401017 76.46701984110314 21.74001008399125 H 0.0 **** 0.06
230 H 52.6940716235498 76.81940291371995 20.680853745300794 H 0.0 **** 0.06
231 C 104.54513498799696 12.03220229716834 8.075982662444602 C 0.0 **** -0.24
232 H 104.41686368726931 10.95662898174885 8.198413288988661 H 0.0 **** 0.06
233 H 104.29234709500116 12.313188182556758 7.053449552197378 H 0.0 **** 0.06
234 H 105.58172203926907 12.30005109720696 8.280543257736369 H 0.0 **** 0.06
235 H 103.88964970174541 12.557658506553025 8.770929836114249 H 0.0 **** 0.06
236 C 84.25703904075584 43.46972212395315 101.11100080741573 C 0.0 **** -0.24
237 H 85.19439636889705 44.00658543882162 100.97376512964007 H 0.0 **** 0.06
238 H 83.50721605919907 43.865765560412456 100.42509345396797 H 0.0 **** 0.06
239 H 83.912857220838 43.59482161542411 102.13783221691034 H 0.0 **** 0.06
240 H 84.41207420469968 42.40987250775237 100.90736472253928 H 0.0 **** 0.06
241 C 69.66371727186234 64.36056363471869 2.4528318814848262 C 0.0 **** -0.24
242 H 69.3808852421586 65.26925103861487 1.9206984250259325 H 0.0 **** 0.06
243 H 69.68477966882443 63.52249878845345 1.7544841597195955 H 0.0 **** 0.06
244 H 68.93818525240448 64.16018217317293 3.239928564390766 H 0.0 **** 0.06
245 H 70.65220174216279 64.49092082459748 2.892717277043289 H 0.0 **** 0.06
246 C 80.27972076881574 62.40858230542858 11.016985427680481 C 0.0 **** -0.24
247 H 80.26048796312548 62.44663071850778 12.106192549221376 H 0.0 **** 0.06
248 H 81.05547187748016 61.71541184973722 10.691477094466222 H 0.0 **** 0.06
249 H 80.48936920427933 63.40215781094969 10.622395872660235 H 0.0 **** 0.06
250 H 79.31112343467046 62.06858000687714 10.648709120035136 H 0.0 **** 0.06
251 C 33.51473576883624 86.67009455888581 75.43548253777249 C 0.0 **** -0.24
252 H 33.722392354298634 86.97531829292603 76.46056541000908 H 0.0 **** 0.06
253 H 34.425350225337795 86.74920375932237 74.84183300525834 H 0.0 **** 0.06
254 H 32.7469173876206 87.31920826487402 75.01210189978005 H 0.0 **** 0.06
255 H 33.16300581393258 85.63873218760455 75.42727285427434 H 0.0 **** 0.06
256 C 79.67328571385703 66.53744673920528 53.36832457487425 C 0.0 **** -0.24
257 H 79.34451779362084 66.58117522501203 52.33072535984275 H 0.0 **** 0.06
258 H 78.8090891605592 66.39571573193484 54.01742039059172 H 0.0 **** 0.06
259 H 80.17591978342033 67.46851890438893 53.62957796029289 H 0.0 **** 0.06
260 H 80.3641580087055 65.70372758492402 53.49610801222756 H 0.0 **** 0.06
261 C 23.81147867245528 10.193688657055958 23.28169363884345 C 0.0 **** -0.24
262 H 24.37456168506884 11.125535863063845 23.234544796607082 H 0.0 **** 0.06
263 H 24.384254338489 9.398602181661573 22.8052671279373 H 0.0 **** 0.06
264 H 22.860745451875317 10.31692379709132 22.764767063409636 H 0.0 **** 0.06
265 H 23.6271220310272 9.933933372221261 24.32450886400798 H 0.0 **** 0.06
266 C 6.357767482327233 9.886799819689458 95.75234087915148 C 0.0 **** -0.24
267 H 7.154035390496318 9.26437214084254 95.34345707894441 H 0.0 **** 0.06
268 H 6.769255900762317 10.54632053994743 96.51664346990766 H 0.0 **** 0.06
269 H 5.591449492485538 9.250748622010732 96.19424957236862 H 0.0 **** 0.06
270 H 5.917351925609012 10.484654302240742 94.9536958118326 H 0.0 **** 0.06
271 C 22.865056658795968 57.09438949836223 41.228812541121876 C 0.0 **** -0.24
272 H 23.102209517719416 58.05883867550659 40.77999072231853 H 0.0 **** 0.06
273 H 22.163760032056878 57.239700541843604 42.05061633970481 H 0.0 **** 0.06
274 H 23.778705632471933 56.6361272976788 41.60753017247052 H 0.0 **** 0.06
275 H 22.416958875958038 56.444607488813375 40.47738627986789 H 0.0 **** 0.06
276 C 5.0778175468568865 54.14488251927054 9.668441426469244 C 0.0 **** -0.24
277 H 6.028349756746133 54.574371537415516 9.983151417331214 H 0.0 **** 0.06
278 H 5.256368348993487 53.3826203997331 8.91033076073829 H 0.0 **** 0.06
279 H 4.44454840483214 54.92917363645287 9.25387374280757 H 0.0 **** 0.06
280 H 4.581562509746911 53.69349198277908 10.528079896206734 H 0.0 **** 0.06
281 C 51.67480468662863 100.65463112866178 28.575571489555145 C 0.0 **** -0.24
282 H 51.61420579673286 100.91435141528454 29.632630096736236 H 0.0 **** 0.06
283 H 50.76731622408154 100.1291347356676 28.278512649945256 H 0.0 **** 0.06
284 H 52.539779827656446 100.01181418577796 28.408490144317966 H 0.0 **** 0.06
285 H 51.779646038066055 101.56431294887872 27.983561309459475 H 0.0 **** 0.06
286 C 75.74394018768518 40.48951234015681 106.12825091708527 C 0.0 **** -0.24
287 H 74.65672464379976 40.48707552261928 106.05606981039313 H 0.0 **** 0.06
288 H 76.15792507276602 41.13705244659889 105.3544633981636 H 0.0 **** 0.06
289 H 76.1185997017529 39.47414457983669 105.99205847433814 H 0.0 **** 0.06
290 H 76.04273700603393 40.858750855555115 107.10871001988181 H 0.0 **** 0.06
291 C 73.86258398085687 75.02940511432485 57.88757409398388 C 0.0 **** -0.24
292 H 74.58780783748205 75.67715490032506 58.380269043331616 H 0.0 **** 0.06
293 H 74.02925599369351 73.99720466853651 58.19716165811266 H 0.0 **** 0.06
294 H 73.98199388498062 75.10888258291914 56.806488806036185 H 0.0 **** 0.06
295 H 72.85440444791212 75.33485464496937 58.1663918001995 H 0.0 **** 0.06
296 C 101.53370954084504 14.398772518148029 57.29055696264089 C 0.0 **** -0.24
297 H 100.86396256136892 15.170048960448263 57.67040212204347 H 0.0 **** 0.06
298 H 101.7762926202034 14.609544931985141 56.24917895599833 H 0.0 **** 0.06
299 H 101.04457217501498 13.42679766852418 57.360143581649595 H 0.0 **** 0.06
300 H 102.4492112590386 14.388205841775324 57.882159606711014 H 0.0 **** 0.06
301 C 22.361670746301712 89.45298352403621 56.353081444201024 C 0.0 **** -0.24
302 H 23.35509122771009 89.476093981727 56.8035495320031 H 0.0 **** 0.06
303 H 21.849435061152604 90.3935681520292 56.557384964820244 H 0.0 **** 0.06
304 H 21.79018754582546 88.62728512716711 56.77727462098835 H 0.0 **** 0.06
305 H 22.454551788125514 89.31625667459834 55.27650793372206 H 0.0 **** 0.06
306 C 65.62106215570793 24.475538385481542 101.92675675719619 C 0.0 **** -0.24
307 H 66.2463814332283 25.30853638005422 102.24596798629736 H 0.0 **** 0.06
308 H 64.69820289621887 24.860177030816914 101.49071809596242 H 0.0 **** 0.06
309 H 65.38324029905726 23.848723990728473 102.78556357809333 H 0.0 **** 0.06
310 H 66.15500096970112 23.884345202721875 101.182361212719 H 0.0 **** 0.06
311 C 26.13656415515105 44.53646919630603 71.53542673391397 C 0.0 **** -0.24
312 H 26.09022675478594 43.61400644856019 70.95588545076153 H 0.0 **** 0.06
313 H 25.13373538221365 44.953751727226575 71.6328050280846 H 0.0 **** 0.06
314 H 26.780937429928898 45.252897050715205 71.02646611165304 H 0.0 **** 0.06
315 H 26.53960815974231 44.32304188769194 72.52545908134523 H 0.0 **** 0.06
316 C 57.35955599855226 64.76570015844085 78.38719090043519 C 0.0 **** -0.24
317 H 57.565492519987004 63.69649106885488 78.34623039376311 H 0.0 **** 0.06
318 H 57.56794804021395 65.21342946849767 77.41574768133252 H 0.0 **** 0.06
319 H 57.99272890496111 65.22846858583979 79.14472784759688 H 0.0 **** 0.06
320 H 56.3122114343578 64.9245359928218 78.64428481538884 H 0.0 **** 0.06
321 C 73.9593391955528 26.275546234788536 15.477820004788825 C 0.0 **** -0.24
322 H 74.85258822802099 26.219294641783677 16.099822937403736 H 0.0 **** 0.06
323 H 73.6725671460242 25.27089414493203 15.163436771632572 H 0.0 **** 0.06
324 H 74.16552417097537 26.886509854017106 14.599840580213172 H 0.0 **** 0.06
325 H 73.14660656216975 26.72262797393762 16.04953083647601 H 0.0 **** 0.06
326 C 7.78503936813744 7.418608588764954 73.12784777348122 C 0.0 **** -0.24
327 H 7.863435872915989 8.471609662260477 72.85891020094134 H 0.0 **** 0.06
328 H 8.266925288810437 7.252986721204934 74.09231351964281 H 0.0 **** 0.06
329 H 8.27561913556172 6.812059898411576 72.36707719600187 H 0.0 **** 0.06
330 H 6.733030571057059 7.137777621438914 73.19391806570613 H 0.0 **** 0.06
331 C 53.55627943996748 38.8614332308164 58.160566515046725 C 0.0 **** -0.24
332 H 53.35931396034657 37.95324299964085 58.73018729602441 H 0.0 **** 0.06
333 H 53.140076635068354 39.7189536626081 58.68864097207111 H 0.0 **** 0.06
334 H 53.093933565044345 38.77954312320719 57.176492802042816 H 0.0 **** 0.06
335 H 54.6333138278494 38.99153605770104 58.04613745346478 H 0.0 **** 0.06
336 C 105.0363378517694 67.70855290945957 100.2625104642249 C 0.0 **** -0.24
337 H 105.9017829054314 67.04863891787699 100.19278832323181 H 0.0 **** 0.06
338 H 105.03896190301315 68.20982268140881 101.2312263883326 H 0.0 **** 0.06
339 H 104.12355177404821 67.12278155103814 100.15828869678994 H 0.0 **** 0.06
340 H 105.08324214391497 68.45257803820641 99.46799031135251 H 0.0 **** 0.06
341 C 50.37961628027557 69.8613855403245 102.43755985563422 C 0.0 **** -0.24
342 H 50.73862422503771 70.88583534001202 102.54058742651318 H 0.0 **** 0.06
343 H 49.9477241830474 69.72583852762747 101.44542628987367 H 0.0 **** 0.06
344 H 49.62080040541423 69.66499622177889 103.19443526914182 H 0.0 **** 0.06
345 H 51.21114370541727 69.17017268939998 102.56926251361708 H 0.0 **** 0.06
346 C 106.74660824211514 15.444216507770804 56.85823951773261 C 0.0 **** -0.24
347 H 107.56806310130929 14.818191312229857 56.50905457111611 H 0.0 **** 0.06
348 H 105.80080336807663 15.029048398128353 56.50981546111109 H 0.0 **** 0.06
349 H 106.86797466181821 16.45329697800082 56.465433602958285 H 0.0 **** 0.06
350 H 106.75237642018237 15.474275538107634 57.94848535630251 H 0.0 **** 0.06
351 C 34.56738052332342 102.47706935497177 90.8273211576637 C 0.0 **** -0.24
352 H 34.6765837591433 101.44398931690733 91.1570801770755 H 0.0 **** 0.06
353 H 33.62459032804453 102.8792689641594 91.20063998718115 H 0.0 **** 0.06
354 H 34.57186472611327 102.51271406686362 89.73776570048277 H 0.0 **** 0.06
355 H 35.39483537807341 103.07051341550704 91.21407205714274 H 0.0 **** 0.06
356 C 23.744948414370924 6.538053637550064 80.08637012509081 C 0.0 **** -0.24
357 H 24.467943739984094 5.7388739548371035 80.24644283335084 H 0.0 **** 0.06
358 H 23.244943453637887 6.76812116442359 81.0269532848838 H 0.0 **** 0.06
359 H 23.0062501871557 6.21846050929247 79.35058010848914 H 0.0 **** 0.06
360 H 24.259657884031128 7.426749155256573 79.72144799787333 H 0.0 **** 0.06
361 C 74.57058807388245 49.12350565277506 60.95917378101021 C 0.0 **** -0.24
362 H 74.8001104347046 48.06483142428542 60.84225908029896 H 0.0 **** 0.06
363 H 74.57947760107288 49.60660965029534 59.982653846118 H 0.0 **** 0.06
364 H 75.31779244569827 49.58876341370389 61.60163899109861 H 0.0 **** 0.06
365 H 73.58413016046421 49.23321914563045 61.411109097886296 H 0.0 **** 0.06
366 C 57.38590898816807 34.569782026064104 24.512828013971557 C 0.0 **** -0.24
367 H 58.31175630706667 34.337628298816696 25.04005582888915 H 0.0 **** 0.06
368 H 56.571602540931195 34.657335225159045 25.231298000570717 H 0.0 **** 0.06
369 H 57.161828027715586 33.77232761488881 23.803436033886456 H 0.0 **** 0.06
370 H 57.50061383934235 35.51117732000466 23.975584656699652 H 0.0 **** 0.06
371 C 40.01690636519912 100.55709457235083 65.67307405581295 C 0.0 **** -0.24
372 H 39.36096462092371 101.33831637076088 66.05713350419484 H 0.0 **** 0.06
373 H 40.8854154703981 101.0126850167053 65.19706246893458 H 0.0 **** 0.06
374 H 39.475002252994955 99.95439639727861 64.94359984671087 H 0.0 **** 0.06
375 H 40.34468800975202 99.92166495558602 66.49646289568523 H 0.0 **** 0.06
376 C 84.90100073433464 103.86159960137714 52.62998945000505 C 0.0 **** -0.24
377 H 84.11026482336766 104.40514602750018 52.1134299614222 H 0.0 **** 0.06
378 H 84.582111598252 102.83344391144523 52.80251292919181 H 0.0 **** 0.06
379 H 85.10706652645115 104.34343188357087 53.585562709887206 H 0.0 **** 0.06
380 H 85.80325110680371 103.86481791666023 52.01875576474059 H 0.0 **** 0.06
381 C 77.88415168179533 20.26550116562771 33.57486091232215 C 0.0 **** -0.24
382 H 78.34417110657925 19.701683663963507 34.385621433057935 H 0.0 **** 0.06
383 H 78.62360748175678 20.933722563033882 33.132288805036296 H 0.0 **** 0.06
384 H 77.05238545760912 20.85213003220082 33.96648868871844 H 0.0 **** 0.06
385 H 77.51618102243458 19.575842671195232 32.815252142373 H 0.0 **** 0.06
386 C 18.279371343184806 33.35908002271054 103.80522858646847 C 0.0 **** -0.24
387 H 18.996100751589296 32.840827211565596 103.16864027212792 H 0.0 **** 0.06
388 H 17.685534762563407 32.628838960369336 104.35296915290864 H 0.0 **** 0.06
389 H 17.623311913563086 33.97287052841196 103.18691390910902 H 0.0 **** 0.06
390 H 18.81452613948126 33.99624502654524 104.50974747518224 H 0.0 **** 0.06
391 C 32.86245640032874 73.03141317537506 49.76365459210177 C 0.0 **** -0.24
392 H 33.020193044433356 73.63463154540386 48.86860120263083 H 0.0 **** 0.06
393 H 31.838810661849905 73.16518840460824 50.11504380386475 H 0.0 **** 0.06
394 H 33.55814901507037 73.34592980311683 50.54051476220758 H 0.0 **** 0.06
395 H 33.03080788733831 71.98063584482162 49.526718871063565 H 0.0 **** 0.06
396 C 64.60348680545928 12.675635610679251 60.42828634624004 C 0.0 **** -0.24
397 H 65.14193804506766 11.742331173132186 60.594962243260966 H 0.0 **** 0.06
398 H 64.92797991687729 13.416958759814008 61.15860541827385 H 0.0 **** 0.06
399 H 63.533328520659325 12.502138530938282 60.53739957871733 H 0.0 **** 0.06
400 H 64.81132433835961 13.040370261197552 59.422419097994066 H 0.0 **** 0.06
401 C 82.65086001675729 106.26732350035758 33.66096361004651 C 0.0 **** -0.24
402 H 81.81467714503242 106.78334191669089 33.189301736731466 H 0.0 **** 0.06
403 H 83.50358332668611 106.94298564759941 33.72718557178442 H 0.0 **** 0.06
404 H 82.92173695585257 105.39597726432609 33.06565688439031 H 0.0 **** 0.06
405 H 82.36127043171797 105.94723035421059 34.662816432948205 H 0.0 **** 0.06
406 C 45.13150604623803 24.930995293925406 27.778215253401214 C 0.0 **** -0.24
407 H 45.190780322853186 25.343902945783526 26.771493577666263 H 0.0 **** 0.06
408 H 46.131620045375655 24.887372792912803 28.211803652509502 H 0.0 **** 0.06
409 H 44.711110141066854 23.926891220206393 27.733943769668883 H 0.0 **** 0.06
410 H 44.49484829137339 25.56585342551082 28.394879518116966 H 0.0 **** 0.06
411 C 56.672542359948864 76.17831465496783 47.042155065763495 C 0.0 **** -0.24
412 H 57.689208241173134 76.10755549166129 47.42818270075503 H 0.0 **** 0.06
413 H 56.09503671512016 76.8621110347002 47.66406459369614 H 0.0 **** 0.06
414 H 56.20889367255222 75.19167158199986 47.05796968860545 H 0.0 **** 0.06
415 H 56.69836740665221 76.55085130004619 46.018137856547725 H 0.0 **** 0.06
416 C 1.312636276850962 61.539043857872 49.39664172562999 C 0.0 **** -0.24
417 H 2.3166753966952616 61.80055452757426 49.06449374356623 H 0.0 **** 0.06
418 H 1.2045610192595042 61.78395130008869 50.45266196771223 H 0.0 **** 0.06
419 H 1.1493668750927366 60.470979039070585 49.252536273768385 H 0.0 **** 0.06
420 H 0.5800447316858675 62.099878813992746 48.81630000929499 H 0.0 **** 0.06
421 C 65.97758274678195 78.0821023827393 76.92920480906491 C 0.0 **** -0.24
422 H 65.0619765260318 77.84904586403742 77.47296362556438 H 0.0 **** 0.06
423 H 66.19433550088812 77.2796494311693 76.22411174131437 H 0.0 **** 0.06
424 H 66.80294785728493 78.17963920691997 77.63386124507517 H 0.0 **** 0.06
425 H 65.84921287123188 79.01884859473029 76.38609019542355 H 0.0 **** 0.06
426 C 73.12704165952567 79.35659052156097 1.406100393190627 C 0.0 **** -0.24
427 H 74.01715327548725 79.96275169136982 1.237486390044694 H 0.0 **** 0.06
428 H 73.31318280794416 78.33648675216784 1.0683348431048785 H 0.0 **** 0.06
429 H 72.2910450995357 79.77695936423481 0.8478661453204381 H 0.0 **** 0.06
430 H 72.88899873631584 79.34995506303011 2.4689654754654953 H 0.0 **** 0.06
431 C 49.42130020358357 33.120535584513505 23.549053295289298 C 0.0 **** -0.24
432 H 48.498518377126715 33.11729432146012 22.9697046261237 H 0.0 **** 0.06
433 H 50.25284310372746 33.40808913401099 22.904771407560986 H 0.0 **** 0.06
434 H 49.60141527296258 32.123325327657966 23.95132438151461 H 0.0 **** 0.06
435 H 49.33341016534678 33.8337003574984 24.368186397768056 H 0.0 **** 0.06
436 C 81.12454284574919 36.03688780300206 65.80097960492907 C 0.0 **** -0.24
437 H 80.99417425498697 35.834357370682284 66.86385832207716 H 0.0 **** 0.06
438 H 80.52954020164923 35.331136192408536 65.22029267534651 H 0.0 **** 0.06
439 H 82.17709111403224 35.927647416714365 65.53767851527289 H 0.0 **** 0.06
440 H 80.7992099540021 37.05409155920421 65.58279444944685 H 0.0 **** 0.06
441 C 75.42244329823039 39.845854895185624 29.56736097219334 C 0.0 **** -0.24
442 H 75.40214055886894 39.189594225123855 28.697913210937827 H 0.0 **** 0.06
443 H 74.77062642550824 40.70261646324636 29.39067137605005 H 0.0 **** 0.06
444 H 76.44168859699276 40.193050763210806 29.73673565011194 H 0.0 **** 0.06
445 H 75.0747401063035 39.29976242781497 30.444428388200947 H 0.0 **** 0.06
446 C 43.572227009223674 80.41192079003889 98.52570356089444 C 0.0 **** -0.24
447 H 43.78623117500807 81.48030607489676 98.50598533730928 H 0.0 **** 0.06
448 H 44.50641575168596 79.85540381479052 98.60622077479482 H 0.0 **** 0.06
449 H 43.056973337515515 80.12758434540427 97.60785215346067 H 0.0 **** 0.06
450 H 42.938804140553046 80.18440273204675 99.38363116919516 H 0.0 **** 0.06
451 C 21.449947310302576 85.70077819368205 7.6964757903106715 C 0.0 **** -0.24
452 H 21.34217204311571 85.09369719224748 6.79714941801285 H 0.0 **** 0.06
453 H 20.499864916665388 85.73090807138699 8.23059226157045 H 0.0 **** 0.06
454 H 21.744392298931018 86.71222909276811 7.419019686901606 H 0.0 **** 0.06
455 H 22.21423265619657 85.26281004140357 8.338684131398907 H 0.0 **** 0.06
456 C 67.998409629816 89.20969074019189 55.472706068857974 C 0.0 **** -0.24
457 H 68.83168373716094 89.45256879438182 54.81315678595166 H 0.0 **** 0.06
458 H 68.3782117321064 88.98535177399128 56.469940329675524 H 0.0 **** 0.06
459 H 67.46719679485126 88.34179186772462 55.082857164161396 H 0.0 **** 0.06
460 H 67.31783034655919 90.05962820139644 55.525002280927026 H 0.0 **** 0.06
461 C 22.734511845296808 100.83286358397301 63.91442943556358 C 0.0 **** -0.24
462 H 22.852955585470085 101.90724450298649 64.04953819322066 H 0.0 **** 0.06
463 H 22.21727632591245 100.63999775284458 62.97437042812862 H 0.0 **** 0.06
464 H 22.15120237561817 100.42506399050698 64.74024982003957 H 0.0 **** 0.06
465 H 23.715670210730977 100.35892408699173 63.89380596646748 H 0.0 **** 0.06
466 C 109.49381171643563 41.08344799539566 31.143890590374156 C 0.0 **** -0.24
467 H 109.98435574678564 41.676496477243575 31.916183810691848 H 0.0 **** 0.06
468 H 110.23490886017117 40.74514480687782 30.419664995892674 H 0.0 **** 0.06
469 H 108.74481530950192 41.69407246440471 30.63931662192067 H 0.0 **** 0.06
470 H 109.01033159389988 40.22024827781371 31.60116725032765 H 0.0 **** 0.06
471 C 87.99118941247309 81.52298461441045 36.475295332364645 C 0.0 **** -0.24
472 H 88.1369319572315 81.19512033692821 35.445931028896375 H 0.0 **** 0.06
473 H 87.1480540059359 80.98655202617357 36.910920758159996 H 0.0 **** 0.06
474 H 87.78879825484776 82.5931859139585 36.49038340765403 H 0.0 **** 0.06
475 H 88.89186684082495 81.3149623254323 37.05309948742847 H 0.0 **** 0.06
476 C 9.77021340878224 93.01495144493532 54.99474224757637 C 0.0 **** -0.24
477 H 8.838743171393162 93.39825387158305 54.57847290561617 H 0.0 **** 0.06
478 H 10.41218890472203 93.84964116151104 55.27829529149767 H 0.0 **** 0.06
479 H 10.277697336020537 92.40374047607315 54.247567561449074 H 0.0 **** 0.06
480 H 9.552898859304605 92.40851832182966 55.87398225059954 H 0.0 **** 0.06
481 C 20.619198944094517 15.021252361908267 18.784218558784232 C 0.0 **** -0.24
482 H 21.559628215315442 15.556131040284939 18.64898782417022 H 0.0 **** 0.06
483 H 20.137975222591653 15.361173326620445 19.70177959030579 H 0.0 **** 0.06
484 H 20.81602070049245 13.951414469342424 18.850715115653443 H 0.0 **** 0.06
485 H 19.964642717526974 15.219185150255882 17.936068552658256 H 0.0 **** 0.06
486 C 51.54220860365502 53.338513470968536 61.804313560621154 C 0.0 **** -0.24
487 H 52.50596431014514 53.1945601643153 62.29275712605374 H 0.0 **** 0.06
488 H 50.96022069408259 52.42005547716008 61.87217855216113 H 0.0 **** 0.06
489 H 51.700863093501425 53.59308207310402 60.75706657873718 H 0.0 **** 0.06
490 H 51.00377052730331 54.148557107712 62.2967417278511 H 0.0 **** 0.06
491 C 29.915818705326416 71.59452041610494 30.24731769549021 C 0.0 **** -0.24
492 H 30.578231110903317 70.72918134681176 30.24077484743259 H 0.0 **** 0.06
493 H 29.950953967201684 72.0710242272149 31.228167570084167 H 0.0 **** 0.06
494 H 28.89547615061852 71.2729385431646 30.03574510541972 H 0.0 **** 0.06
495 H 30.238387221971834 72.30501278946853 29.48702116727071 H 0.0 **** 0.06
496 C 97.47571985182586 86.94542116687968 91.86760858614049 C 0.0 **** -0.24
497 H 97.92030549187928 86.84979527559355 90.87685127763793 H 0.0 **** 0.06
498 H 96.95822695848518 87.90165279239335 91.9421934190743 H 0.0 **** 0.06
499 H 98.25899952945977 86.89580428691305 92.62356613213414 H 0.0 **** 0.06
500 H 96.76528598652483 86.13374091466463 92.02710362394933 H 0.0 **** 0.06
501 C 107.5699770870753 58.34685687429271 9.863078009642052 C 0.0 **** -0.24
502 H 106.53594438225441 58.44076072233224 10.193976991164448 H 0.0 **** 0.06
503 H 108.09224995189288 59.28833986672589 10.032351595442151 H 0.0 **** 0.06
504 H 107.59084664942456 58.104881366827954 8.800108072781399 H 0.0 **** 0.06
505 H 108.0606432097475 57.55247192747788 10.42583200895227 H 0.0 **** 0.06
506 C 99.49360634512365 10.429379047735301 23.020612280745013 C 0.0 **** -0.24
507 H 99.2360501001099 9.46754065116715 22.57709631152113 H 0.0 **** 0.06
508 H 100.55206251177269 10.632855658178855 22.85696154061867 H 0.0 **** 0.06
509 H 99.29012636821477 10.401841624861506 24.09087360254938 H 0.0 **** 0.06
510 H 98.89626858860213 11.214541717015322 22.556846248437353 H 0.0 **** 0.06
511 C 57.2096487680102 36.35823465944458 87.08399193249534 C 0.0 **** -0.24
512 H 56.50916927742816 36.84477036602277 87.76329176187546 H 0.0 **** 0.06
513 H 58.163415484312736 36.88640005221333 87.10480416003058 H 0.0 **** 0.06
514 H 56.80565496872231 36.37694077982508 86.07232609389395 H 0.0 **** 0.06
515 H 57.359468286207715 35.325057653336444 87.3966228562405 H 0.0 **** 0.06
516 C 36.40368879896957 40.25592700133104 43.95434033014496 C 0.0 **** -0.24
517 H 36.52897730714338 40.289375116594314 42.87216301745514 H 0.0 **** 0.06
518 H 36.012518757082944 39.27960961838537 44.2436207959216 H 0.0 **** 0.06
519 H 35.705272341673435 41.0336380604742 44.26355336188095 H 0.0 **** 0.06
520 H 37.367169085665125 40.41828687369641 44.437316242214024 H 0.0 **** 0.06
521 C 13.034959115065305 81.308353861179 72.12491905834878 C 0.0 **** -0.24
522 H 13.927166589182548 80.68302036550804 72.16135515651712 H 0.0 **** 0.06
523 H 12.615045180354684 81.28351524386522 71.11970812194079 H 0.0 **** 0.06
524 H 13.300351989698385 82.33444624429012 72.38281023866159 H 0.0 **** 0.06
525 H 12.29998054418553 80.93352578482381 72.83649202802206 H 0.0 **** 0.06
526 C 7.493897427694167 69.60929239264419 5.218891924060472 C 0.0 **** -0.24
527 H 8.287573898770956 69.0591538695544 4.713787997669215 H 0.0 **** 0.06
528 H 6.525933429642036 69.27103993411461 4.848885554972313 H 0.0 **** 0.06
529 H 7.606705775109079 70.67492185527107 5.019337777316608 H 0.0 **** 0.06
530 H 7.554549171878479 69.4327083867438 6.292614499208028 H 0.0 **** 0.06
531 C 42.92540733976125 102.725396377173 99.54223298815054 C 0.0 **** -0.24
532 H 43.22890334736243 102.70553834964268 100.58864425177336 H 0.0 **** 0.06
533 H 43.370254055470355 101.87830165833368 99.01939199441225 H 0.0 **** 0.06
534 H 43.262380114142076 103.65465861522975 99.08334983154171 H 0.0 **** 0.06
535 H 41.83875229367709 102.66166476391055 99.47863373135195 H 0.0 **** 0.06
536 C 108.77069582011973 14.338863070656956 23.358972544980475 C 0.0 **** -0.24
537 H 109.7949918946587 14.16256241276588 23.68768727284568 H 0.0 **** 0.06
538 H 108.13298272048954 13.524890958799958 23.70607082510928 H 0.0 **** 0.06
539 H 108.74164944799355 14.383391004794547 22.269892959151576 H 0.0 **** 0.06
540 H 108.41448908961667 15.2821060561416 23.771252898619295 H 0.0 **** 0.06
541 C 73.37521698706401 33.258395212196945 5.77101821657368 C 0.0 **** -0.24
542 H 73.25844846750965 34.2721732246026 5.3887618157995405 H 0.0 **** 0.06
543 H 74.40639331155172 33.106686062464945 6.091200182662462 H 0.0 **** 0.06
544 H 73.12987945695427 32.544484774946 4.984386064197963 H 0.0 **** 0.06
545 H 72.70500933198717 33.110375518028974 6.617559758262345 H 0.0 **** 0.06
546 C 87.04263344276173 88.99406975132165 50.079551989702395 C 0.0 **** -0.24
547 H 86.73828289806131 88.79935057872476 51.10749745372868 H 0.0 **** 0.06
548 H 88.13028168146934 89.04951903378274 50.02753804265819 H 0.0 **** 0.06
549 H 86.61339095039455 89.93939052912577 49.74701588701271 H 0.0 **** 0.06
550 H 86.68826280665151 88.18780523387193 49.43708119083743 H 0.0 **** 0.06
551 C 66.43380002827615 92.33726806691634 37.287980484065145 C 0.0 **** -0.24
552 H 67.18642146015108 91.90634498782198 36.62821614902373 H 0.0 **** 0.06
553 H 65.4568190766974 91.91788391949349 37.0468707386168 H 0.0 **** 0.06
554 H 66.40837482683781 93.41866187646984 37.15250452615351 H 0.0 **** 0.06
555 H 66.68293889985273 92.10599404498448 38.32359039053483 H 0.0 **** 0.06
556 C 71.77594604594492 28.43300571405858 103.89353588574592 C 0.0 **** -0.24
557 H 72.36312195852474 28.08611106930944 104.7433018771984 H 0.0 **** 0.06
558 H 72.35092513245183 29.166100815041382 103.32900042560243 H 0.0 **** 0.06
559 H 70.8538413947879 28.891166913977635 104.25307187417197 H 0.0 **** 0.06
560 H 71.53424941931064 27.586340331207644 103.24976086095418 H 0.0 **** 0.06
561 C 76.58273590303983 22.553289814230766 62.738077440064586 C 0.0 **** -0.24
562 H 77.33875901545682 23.331763779046852 62.6347668424206 H 0.0 **** 0.06
563 H 75.65129309891893 22.887905197593142 62.28096082466193 H 0.0 **** 0.06
564 H 76.41535917215316 22.347623653907732 63.7947983755238 H 0.0 **** 0.06
565 H 76.92614871824804 21.64545986102341 62.2411094385062 H 0.0 **** 0.06
566 C 44.51009747197057 18.48508631150571 31.520437859456003 C 0.0 **** -0.24
567 H 43.43667910918649 18.452511788429405 31.702867499465256 H 0.0 **** 0.06
568 H 44.71864495319767 18.124160208665046 30.51236587691956 H 0.0 **** 0.06
569 H 45.020637721028 17.852034725799285 32.245715076826116 H 0.0 **** 0.06
570 H 44.865208368438594 19.51156809834376 31.619625559862186 H 0.0 **** 0.06
571 C 4.648948108378505 87.1212590095646 59.70672871085516 C 0.0 **** -0.24
572 H 5.673199440478157 87.44741754196525 59.885568079002894 H 0.0 **** 0.06
573 H 4.116912962045234 87.88866004916372 59.1442431625929 H 0.0 **** 0.06
574 H 4.147933567274237 86.9548312614823 60.66024743456359 H 0.0 **** 0.06
575 H 4.657995935981319 86.19282600781554 59.13505479244536 H 0.0 **** 0.06
576 C 8.4328662817167 19.417958387551096 0.4062720015181185 C 0.0 **** -0.24
577 H 9.354523263930497 19.692518531344376 0.9180129482251402 H 0.0 **** 0.06
578 H 7.581274487851191 19.851824441617453 0.9317160687546959 H 0.0 **** 0.06
579 H 8.335484237958497 18.331829072031496 0.3908887516384709 H 0.0 **** 0.06
580 H 8.4596038256223 19.79447294130756 -0.6160315738481472 H 0.0 **** 0.06
581 C 29.51233474740428 71.31387895265135 54.229828794849425 C 0.0 **** -0.24
582 H 29.09594187240333 72.26006738047745 53.882914958513425 H 0.0 **** 0.06
583 H 29.71758923558525 70.67233848821989 53.37306620146444 H 0.0 **** 0.06
584 H 28.797253911552104 70.82307343122106 54.88966971953619 H 0.0 **** 0.06
585 H 30.437492966677638 71.50222474532903 54.77337069708244 H 0.0 **** 0.06
586 C 6.326316505534434 96.1818383612856 21.360675264100976 C 0.0 **** -0.24
587 H 7.242778598618669 96.15899225467092 21.951044692750884 H 0.0 **** 0.06
588 H 5.464599228789568 96.1265804039283 22.024276438009167 H 0.0 **** 0.06
589 H 6.314738421792468 95.33316768769953 20.676177047637893 H 0.0 **** 0.06
590 H 6.287215470891235 97.10912477446823 20.78915120941012 H 0.0 **** 0.06
591 C 19.41739151394023 82.53432890867197 65.95656416287056 C 0.0 **** -0.24
592 H 19.34731795941798 81.96857729236172 65.02687841078773 H 0.0 **** 0.06
593 H 20.426754017378954 82.9295426792695 66.0659629163539 H 0.0 **** 0.06
594 H 19.18861184954352 81.88052242497662 66.7978165916731 H 0.0 **** 0.06
595 H 18.704711341426048 83.35958757720636 65.93374086244202 H 0.0 **** 0.06
596 C 102.68808705548065 74.09197856833259 65.1216626164221 C 0.0 **** -0.24
597 H 102.38741353280295 73.63731791037735 64.17756099686005 H 0.0 **** 0.06
598 H 102.38976497819834 75.14076720304534 65.13032957988332 H 0.0 **** 0.06
599 H 103.7706066386657 74.0208820137594 65.23009873517105 H 0.0 **** 0.06
600 H 102.20527670460427 73.56897121936217 65.94654209720579 H 0.0 **** 0.06
601 C 87.94201128421128 23.421586260982053 18.87895547780676 C 0.0 **** -0.24
602 H 87.93079930095234 22.922632479981274 17.909445191987842 H 0.0 **** 0.06
603 H 88.95305666479044 23.402048549174935 19.285619025883822 H 0.0 **** 0.06
604 H 87.2662360603207 22.904858231399885 19.560375845523996 H 0.0 **** 0.06
605 H 87.61769203362354 24.455004506299105 18.75908281318565 H 0.0 **** 0.06
606 C 109.64901629632291 10.93206665905393 107.12121232030623 C 0.0 **** -0.24
607 H 108.6782157615473 11.42575180915884 107.17377721564998 H 0.0 **** 0.06
608 H 110.40002748155365 11.555319010018309 107.60519927073221 H 0.0 **** 0.06
609 H 109.92103481530225 10.778849002136738 106.07698246255191 H 0.0 **** 0.06
610 H 109.59374537175863 9.96814401911928 107.62758375177269 H 0.0 **** 0.06
611 C 26.64192396563412 42.45228295286303 16.73022697414757 C 0.0 **** -0.24
612 H 26.12794687279561 41.81944893818749 17.45286819031736 H 0.0 **** 0.06
613 H 26.24365019825358 42.26397730585171 15.73342423493466 H 0.0 **** 0.06
614 H 27.709148906569325 42.22563150473076 16.74341407083938 H 0.0 **** 0.06
615 H 26.49086364055342 43.498884910444474 16.991720330647468 H 0.0 **** 0.06
616 C 45.45620667225387 70.98618206539128 48.1145676051064 C 0.0 **** -0.24
617 H 44.575084178579004 71.45890177158864 48.54704754778294 H 0.0 **** 0.06
618 H 45.40814598667578 71.05477709364767 47.02740631706092 H 0.0 **** 0.06
619 H 45.487898536985085 69.93709022689241 48.41130949611477 H 0.0 **** 0.06
620 H 46.35276981068665 71.49198271567086 48.4729891082705 H 0.0 **** 0.06
621 C 102.79902770066724 4.3789010293465935 50.17814194378086 C 0.0 **** -0.24
622 H 102.24101615094969 5.310776078089958 50.09699610148817 H 0.0 **** 0.06
623 H 102.27168542425446 3.5916834272232165 49.63818234778433 H 0.0 **** 0.06
624 H 102.89000842049208 4.10104454900403 51.228300992428466 H 0.0 **** 0.06
625 H 103.79292712075863 4.51067830589237 49.749956883209784 H 0.0 **** 0.06
626 C 88.76787284607283 90.5470967625432 97.94709731352395 C 0.0 **** -0.24
627 H 89.645469012609 91.19308405770016 97.94321350714466 H 0.0 **** 0.06
628 H 88.87359107983144 89.78677524022766 97.17253509826429 H 0.0 **** 0.06
629 H 87.87662077228615 91.14394935818454 97.75056104080514 H 0.0 **** 0.06
630 H 88.67557667103748 90.0655250351389 98.91983250147567 H 0.0 **** 0.06
631 C 42.399809202340805 79.99183025479593 88.18426842264097 C 0.0 **** -0.24
632 H 42.31068068667389 80.01776143788923 89.2705052451392 H 0.0 **** 0.06
633 H 43.19798300430398 80.66647678911133 87.87052729352162 H 0.0 **** 0.06
634 H 41.45893775459814 80.3091814477361 87.73488789296798 H 0.0 **** 0.06
635 H 42.632888102765946 78.97733454267177 87.86306235550596 H 0.0 **** 0.06
636 C 88.31307382149495 85.15376777619231 101.40867270048838 C 0.0 **** -0.24
637 H 89.281333465376 84.90187383907339 100.97715631370313 H 0.0 **** 0.06
638 H 88.30634176748181 84.88701131412842 102.46561944141591 H 0.0 **** 0.06
639 H 87.52931727724324 84.60312241069278 100.8889573295889 H 0.0 **** 0.06
640 H 88.13638478372982 86.22499028522017 101.30261542113854 H 0.0 **** 0.06
641 C 12.71729477766371 44.60282192128359 95.94306421251825 C 0.0 **** -0.24
642 H 13.40853886416744 44.35217957947263 95.13786001111542 H 0.0 **** 0.06
643 H 13.279818744646889 44.95003676781113 96.809457509401 H 0.0 **** 0.06
644 H 12.139524587152948 43.71917819516551 96.21344928319795 H 0.0 **** 0.06
645 H 12.04068139659853 45.3898758774001 95.60855384270656 H 0.0 **** 0.06
646 C 79.44276788118833 99.11903562715125 60.975694469265875 C 0.0 **** -0.24
647 H 78.97788269270052 99.22202757598775 59.99504969860527 H 0.0 **** 0.06
648 H 79.11975936011888 98.18496602707566 61.435242295285036 H 0.0 **** 0.06
649 H 79.14761728685181 99.95670822347147 61.607625226543774 H 0.0 **** 0.06
650 H 80.5275243808691 99.11347273377652 60.864801869114444 H 0.0 **** 0.06
651 C 6.668798128527868 41.16426838870483 95.87064352033208 C 0.0 **** -0.24
652 H 5.990517927980164 41.22218437129821 95.01930196418235 H 0.0 **** 0.06
653 H 6.388507103244223 40.31952395016128 96.50012705603741 H 0.0 **** 0.06
654 H 6.606900271602171 42.08539863762721 96.44867497938958 H 0.0 **** 0.06
655 H 7.689283436091117 41.02744104321909 95.51170928017966 H 0.0 **** 0.06
656 C 52.84353029892788 30.973077435805806 107.98107104096987 C 0.0 **** -0.24
657 H 53.58684271522111 30.655934828618143 107.24925618898506 H 0.0 **** 0.06
658 H 52.920346495761436 30.348216103765367 108.87176425361871 H 0.0 **** 0.06
659 H 51.84638635681264 30.873718174567955 107.55228155417846 H 0.0 **** 0.06
660 H 53.020545627916455 32.01444063627176 108.25098216709736 H 0.0 **** 0.06
661 C 2.934341869413487 42.28809146654214 16.73930173146769 C 0.0 **** -0.24
662 H 3.1357436185971608 41.269486670873334 16.406660226320952 H 0.0 **** 0.06
663 H 3.7343764143981133 42.94666163604779 16.39736764354818 H 0.0 **** 0.06
664 H 2.884606089441874 42.31142423222241 17.827879547638105 H 0.0 **** 0.06
665 H 1.984731924748857 42.624316058169256 16.324115432717264 H 0.0 **** 0.06
666 C 87.71582404771829 56.6174519091914 110.0973196170315 C 0.0 **** -0.24
667 H 88.16238685709226 57.55584288814535 110.42741475897557 H 0.0 **** 0.06
668 H 88.50103996876166 55.940983767371335 109.75860353768225 H 0.0 **** 0.06
669 H 87.02553534819373 56.813228896576504 109.27679867686065 H 0.0 **** 0.06
670 H 87.17536786898728 56.160716981793485 110.92647645484276 H 0.0 **** 0.06
671 C 108.83133091360538 67.75769500271394 7.29911370934064 C 0.0 **** -0.24
672 H 109.4361772665589 66.87476288398753 7.092712425042267 H 0.0 **** 0.06
673 H 108.99571519098183 68.07869043699736 8.327382369186154 H 0.0 **** 0.06
674 H 107.77724191219605 67.51749297982511 7.157603520822599 H 0.0 **** 0.06
675 H 109.11542611085528 68.55998126386578 6.6181273610809175 H 0.0 **** 0.06
676 C 72.50426875499079 36.07660425448151 54.381931556263 C 0.0 **** -0.24
677 H 71.67185642144133 36.09911384930001 55.08548096588012 H 0.0 **** 0.06
678 H 73.39568902757048 35.702603245056224 54.8848299950518 H 0.0 **** 0.06
679 H 72.69238395493807 37.08381832887926 54.008821303456585 H 0.0 **** 0.06
680 H 72.2556012596203 35.42123370010475 53.5470155955295 H 0.0 **** 0.06
681 C 109.22455804042201 70.49213873080039 108.32914232764122 C 0.0 **** -0.24
682 H 109.16251475882905 69.42387964163238 108.53757193173993 H 0.0 **** 0.06
683 H 110.06309091320522 70.68275363462949 107.65842452305733 H 0.0 **** 0.06
684 H 109.37451829615513 71.03604298250329 109.26192624351256 H 0.0 **** 0.06
685 H 108.29939037211032 70.82531543267814 107.85844941045525 H 0.0 **** 0.06
686 C 76.3201194924313 13.649817924021008 107.45707254621902 C 0.0 **** -0.24
687 H 76.29739206878837 14.685491753826973 107.11726680832624 H 0.0 **** 0.06
688 H 75.35513316296228 13.181662776562412 107.25959359254972 H 0.0 **** 0.06
689 H 76.52464078573308 13.622000228008105 108.52715942463385 H 0.0 **** 0.06
690 H 77.10175220407642 13.109601360095333 106.92275325132914 H 0.0 **** 0.06
691 C 64.34103061663814 52.674442564865956 75.16559083852958 C 0.0 **** -0.24
692 H 64.11688772259589 52.85884652383089 76.21641760532707 H 0.0 **** 0.06
693 H 64.46180308588225 53.62546087798876 74.64752146466908 H 0.0 **** 0.06
694 H 63.52281844179407 52.113798084408245 74.71223513193377 H 0.0 **** 0.06
695 H 65.26316918392268 52.09760259262845 75.08685139271121 H 0.0 **** 0.06
696 C 13.100111599249999 106.35577106558047 45.39854099323754 C 0.0 **** -0.24
697 H 14.039095994411582 106.90657767779452 45.44994229890366 H 0.0 **** 0.06
698 H 12.43633045769053 106.69684152401273 46.193529239957506 H 0.0 **** 0.06
699 H 13.296956048965683 105.2910947443846 45.51974441205657 H 0.0 **** 0.06
700 H 12.629038094345447 106.5315140961982 44.431568988323995 H 0.0 **** 0.06
701 C 60.90530261917867 61.11015516533871 85.17910512524065 C 0.0 **** -0.24
702 H 60.34935230512711 60.26067011751854 84.78422025584871 H 0.0 **** 0.06
703 H 60.85595642239302 61.938274769720636 84.47155396606433 H 0.0 **** 0.06
704 H 61.94615296459499 60.82425960766747 85.33067035571275 H 0.0 **** 0.06
705 H 60.47087703294278 61.41819056780773 86.1303329370129 H 0.0 **** 0.06
706 C 108.82008180803882 30.157836397167188 92.49083055735203 C 0.0 **** -0.24
707 H 108.04557550237928 30.335162822069563 93.23786276322969 H 0.0 **** 0.06
708 H 108.52631195979552 30.61860276863888 91.54775136976981 H 0.0 **** 0.06
709 H 108.94580527133644 29.083996691356475 92.34787009848934 H 0.0 **** 0.06
710 H 109.7595550206799 30.592344310783176 92.83124596043086 H 0.0 **** 0.06
711 C 72.92711552430717 51.38185008698494 16.058121938950677 C 0.0 **** -0.24
712 H 72.37513587434438 51.74665998142833 15.191654997655462 H 0.0 **** 0.06
713 H 73.26439964935071 50.36204840408956 15.870186505165321 H 0.0 **** 0.06
714 H 72.27704372264657 51.39402667794576 16.93349338072096 H 0.0 **** 0.06
715 H 73.78941238159456 52.022749351805004 16.236676966546128 H 0.0 **** 0.06
716 C 63.22084773291449 28.779509752044675 30.520034099599627 C 0.0 **** -0.24
717 H 64.24731402911948 28.41840388067493 30.459188346999213 H 0.0 **** 0.06
718 H 63.21420882733159 29.868445818163877 30.455265302606506 H 0.0 **** 0.06
719 H 62.78225367477825 28.469942130010594 31.468211734782017 H 0.0 **** 0.06
720 H 62.63970212757968 28.36320100410512 29.69705259579797 H 0.0 **** 0.06
721 C 30.405554698241104 58.001175571050084 6.571242954181763 C 0.0 **** -0.24
722 H 29.85310019771582 57.63465266786313 7.436805054935316 H 0.0 **** 0.06
723 H 31.3834843871702 58.36277125116433 6.890911343151627 H 0.0 **** 0.06
724 H 29.85036841690139 58.81624831454795 6.1047920450473185 H 0.0 **** 0.06
725 H 30.533099454277135 57.19157572516848 5.852560713804058 H 0.0 **** 0.06
726 C 110.73061837789965 28.411787779267456 84.23459266125904 C 0.0 **** -0.24
727 H 110.91434380596775 29.396608018168195 83.80439639710467 H 0.0 **** 0.06
728 H 111.64282794892705 28.04703020013241 84.70822375089809 H 0.0 **** 0.06
729 H 110.42907563235673 27.721575235352674 83.4464560185167 H 0.0 **** 0.06
730 H 109.93785031492396 28.4825169340333 84.97913137929812 H 0.0 **** 0.06
731 C 32.646024258863804 78.16127204136922 78.33874633002108 C 0.0 **** -0.24
732 H 32.533317200108854 77.77780278088173 79.35312801759487 H 0.0 **** 0.06
733 H 31.720228230223967 78.00195688695773 77.78577785504542 H 0.0 **** 0.06
734 H 33.46192452927532 77.63652232830069 77.84121216641131 H 0.0 **** 0.06
735 H 32.86876121494302 79.22739233149787 78.37659451021682 H 0.0 **** 0.06
736 C 85.76479618697971 28.505944135300155 5.019218547362636 C 0.0 **** -0.24
737 H 85.4571509149356 28.24499491440841 4.006499615764769 H 0.0 **** 0.06
738 H 84.89416865969719 28.833849382002256 5.589319162773723 H 0.0 **** 0.06
739 H 86.49858002063496 29.310798253904863 4.980015893321843 H 0.0 **** 0.06
740 H 86.2063777744624 27.63369048257792 5.5004471452871755 H 0.0 **** 0.06
741 C 86.23716925504331 94.02434630366234 87.99580454832406 C 0.0 **** -0.24
742 H 85.52339097601711 94.28058163638158 88.77926788319513 H 0.0 **** 0.06
743 H 86.64827415810095 93.03351958341034 88.18943540252701 H 0.0 **** 0.06
744 H 87.04396079179361 94.75810531282289 87.9855122810867 H 0.0 **** 0.06
745 H 85.73240037739524 94.02710653950174 87.02993008782576 H 0.0 **** 0.06
746 C 79.77412315921164 5.199126506586111 66.43250793557723 C 0.0 **** -0.24
747 H 79.60925673932698 4.178581111605325 66.08522713816055 H 0.0 **** 0.06
748 H 79.2061015733469 5.367068527561884 67.3477186793555 H 0.0 **** 0.06
749 H 79.44654136545289 5.901163071626911 65.66617411285212 H 0.0 **** 0.06
750 H 80.83539263787738 5.347161110821531 66.63188590365914 H 0.0 **** 0.06
751 C 96.35067190691859 109.82011681274358 61.001349203669605 C 0.0 **** -0.24
752 H 95.92043532254911 109.00560757468457 60.41801315135672 H 0.0 **** 0.06
753 H 96.73437750882078 110.58682747956051 60.327397754578925 H 0.0 **** 0.06
754 H 97.16438996766087 109.4361467061885 61.61693236401672 H 0.0 **** 0.06
755 H 95.58192003584062 110.25201943077361 61.643784047518864 H 0.0 **** 0.06
756 C 95.77951736691847 48.3589044596539 100.23129763867429 C 0.0 **** -0.24
757 H 96.10649997645271 48.99768959019851 101.05112482196846 H 0.0 **** 0.06
758 H 94.69951978478676 48.4490211474196 100.10978222299697 H 0.0 **** 0.06
759 H 96.03491047161364 47.32289209129471 100.45421572534099 H 0.0 **** 0.06
760 H 96.27599032158594 48.66672840429844 99.31154130657903 H 0.0 **** 0.06
761 C 93.88629663131178 80.86723049323916 28.376477646429834 C 0.0 **** -0.24
762 H 94.74255929407457 80.36381003892791 28.826217426303742 H 0.0 **** 0.06
763 H 94.01470493058574 81.94631857745941 28.462349391313637 H 0.0 **** 0.06
764 H 92.97583193906536 80.56668559302449 28.894071591878856 H 0.0 **** 0.06
765 H 93.81510797352217 80.59148955668599 27.324501969354174 H 0.0 **** 0.06
766 C 88.03052880995493 0.17371174881466178 105.60343834192695 C 0.0 **** -0.24
767 H 88.70983950058924 0.5435477725629836 106.37113880951418 H 0.0 **** 0.06
768 H 88.38729440927328 0.4852018632877133 104.62074660875422 H 0.0 **** 0.06
769 H 87.03377426029178 0.579546935916091 105.77331137965095 H 0.0 **** 0.06
770 H 87.99149464544782 -0.915237350286878 105.64724454216982 H 0.0 **** 0.06
771 C 1.5371405769259825 37.97050260788558 61.44117649794764 C 0.0 **** -0.24
772 H 1.4526876153023265 38.86514572981207 60.823058234045774 H 0.0 **** 0.06
773 H 0.5547951692260247 37.50985497405486 61.54854046087007 H 0.0 **** 0.06
774 H 1.9207680273196663 38.2435582706799 62.42374215425485 H 0.0 **** 0.06
775 H 2.220616733520263 37.265199175037026 60.968004053716925 H 0.0 **** 0.06
776 C 48.552732144285756 44.72498134189897 37.53093706055134 C 0.0 **** -0.24
777 H 48.7827594583685 43.96516142122198 36.785097416308986 H 0.0 **** 0.06
778 H 48.956920038010196 45.68449977560738 37.20917748091361 H 0.0 **** 0.06
779 H 48.999814136600776 44.44338402866322 38.484858141936115 H 0.0 **** 0.06
780 H 47.471971437709044 44.80571694133505 37.646703130323175 H 0.0 **** 0.06
781 C 23.59796115366512 54.08450263417808 70.08238254091754 C 0.0 **** -0.24
782 H 22.775751563218705 54.004063681107596 70.79309392482443 H 0.0 **** 0.06
783 H 24.473923271032348 53.57117408458964 70.47951969931461 H 0.0 **** 0.06
784 H 23.835479717398997 55.136044183047034 69.9199200618562 H 0.0 **** 0.06
785 H 23.306050039561615 53.627444338340354 69.13671697514093 H 0.0 **** 0.06
786 C 35.194849887037265 67.40405441788465 58.142996113147376 C 0.0 **** -0.24
787 H 34.35672068023922 67.03674636874818 58.734955525531575 H 0.0 **** 0.06
788 H 35.61670883514887 68.2889074208383 58.62089043587241 H 0.0 **** 0.06
789 H 34.84801355808207 67.66094901124461 57.14275844469381 H 0.0 **** 0.06
790 H 35.95860799028833 66.6284638355922 58.075183070884634 H 0.0 **** 0.06
791 C 82.4217727501264 14.58158727882892 79.96118153163472 C 0.0 **** -0.24
792 H 83.17858047261811 14.556005170778377 80.74481941257982 H 0.0 **** 0.06
793 H 81.43028594695068 14.580847727084716 80.41312628894893 H 0.0 **** 0.06
794 H 82.53067898576046 13.70570896916874 79.32141175924447 H 0.0 **** 0.06
795 H 82.54887852344942 15.484935835361938 79.36398870151604 H 0.0 **** 0.06
796 C 98.79068309675522 14.068786058553826 50.45122289358801 C 0.0 **** -0.24
797 H 99.13872834294594 13.912679484199131 49.42972349602033 H 0.0 **** 0.06
798 H 98.21912377017192 14.996028393890185 50.501096352800886 H 0.0 **** 0.06
799 H 99.64891524765659 14.134387273795838 51.12008445960976 H 0.0 **** 0.06
800 H 98.15804813272467 13.233983686906257 50.75227889664379 H 0.0 **** 0.06
801 C 102.36261327461577 71.01991703966749 34.75869499364421 C 0.0 **** -0.24
802 H 102.09976553418743 69.96587986547172 34.666774081013045 H 0.0 **** 0.06
803 H 101.90473864487141 71.43219891689648 35.657585523774685 H 0.0 **** 0.06
804 H 102.00124841285293 71.56190659493907 33.88438582453719 H 0.0 **** 0.06
805 H 103.44614722247506 71.11951464307202 34.82406501631945 H 0.0 **** 0.06
806 C 12.936423074110223 96.71748844797831 64.88638519738754 C 0.0 **** -0.24
807 H 11.991613681981619 96.33487545385537 64.50088783151034 H 0.0 **** 0.06
808 H 13.683212133902941 95.92353559921239 64.87122884372616 H 0.0 **** 0.06
809 H 12.797071838614556 97.06500055109956 65.91022518473267 H 0.0 **** 0.06
810 H 13.273510815331946 97.5461976784923 64.26409380728626 H 0.0 **** 0.06
811 C 40.98199188601009 50.73628782295785 83.93424512115067 C 0.0 **** -0.24
812 H 41.063305273720204 50.137322258471045 84.8411487016993 H 0.0 **** 0.06
813 H 41.97528317413858 50.89810948795233 83.51556756316354 H 0.0 **** 0.06
814 H 40.527534225967884 51.69823898314227 84.1727403319559 H 0.0 **** 0.06
815 H 40.361227101544216 50.21173017893561 83.20677816419793 H 0.0 **** 0.06
816 C 97.62514242556581 61.654695989327195 75.62146986032496 C 0.0 **** -0.24
817 H 97.95052534285472 60.64195330520681 75.38584538940175 H 0.0 **** 0.06
818 H 98.49784631933477 62.28655451852637 75.7924188121289 H 0.0 **** 0.06
819 H 97.00696932952742 61.637748768407505 76.51930145263523 H 0.0 **** 0.06
820 H 97.0458754742079 62.053644489898545 74.78889156707278 H 0.0 **** 0.06
821 C 79.20180372440112 74.59224700701145 92.33073522581759 C 0.0 **** -0.24
822 H 78.27893178588567 75.11163741739404 92.07239877228363 H 0.0 **** 0.06
823 H 79.9186112871538 74.6997743421457 91.51732298883519 H 0.0 **** 0.06
824 H 78.99011244353386 73.53513118193064 92.4918739061857 H 0.0 **** 0.06
825 H 79.61818276178627 75.02220302076006 93.24156069861067 H 0.0 **** 0.06
826 C 68.20469568750495 109.44794327638138 107.9622636677729 C 0.0 **** -0.24
827 H 67.1724317992821 109.73520532908086 108.16343904629139 H 0.0 **** 0.06
828 H 68.69959249263698 110.24314631607484 107.4047531216629 H 0.0 **** 0.06
829 H 68.21787831015986 108.52954375576843 107.37512119433336 H 0.0 **** 0.06
830 H 68.72601395434457 109.28542098976703 108.90510588908592 H 0.0 **** 0.06
831 C 67.87573406850116 41.614703122925825 2.269941079921125 C 0.0 **** -0.24
832 H 67.80000579770223 42.578063146733186 2.7755135184366964 H 0.0 **** 0.06
833 H 68.31250161691915 41.75609430487676 1.2817465985393142 H 0.0 **** 0.06
834 H 66.88105901012966 41.17937337869053 2.1689592827702313 H 0.0 **** 0.06
835 H 68.50744741057784 40.94704150391677 2.8550307316229464 H 0.0 **** 0.06
836 C 8.372545277826333 41.912911379597034 2.792692746882935 C 0.0 **** -0.24
837 H 8.145907942842001 42.95433845484986 2.562975687472459 H 0.0 **** 0.06
838 H 7.551971846366655 41.481473572095894 3.3664090706292455 H 0.0 **** 0.06
839 H 9.290643638021947 41.86220079759582 3.3775649910284926 H 0.0 **** 0.06
840 H 8.50010638585485 41.35566387713473 1.8656835678724661 H 0.0 **** 0.06
841 C 66.29118105453549 70.43712676787442 91.87642076727126 C 0.0 **** -0.24
842 H 65.33156319272388 70.01656689053095 91.57793857918922 H 0.0 **** 0.06
843 H 66.79931357245103 69.74311790936383 92.5472887656448 H 0.0 **** 0.06
844 H 66.12939519101684 71.38554052418948 92.38897654644897 H 0.0 **** 0.06
845 H 66.90636938158995 70.60345952704569 90.99202070139154 H 0.0 **** 0.06
846 C 29.844186372836496 99.23606473049486 92.72587066753658 C 0.0 **** -0.24
847 H 30.59215890579491 98.57144801466187 93.15897974837449 H 0.0 **** 0.06
848 H 29.282855586867946 98.70053293766408 91.95961273028774 H 0.0 **** 0.06
849 H 30.33941715992441 100.09755327061171 92.27902657455616 H 0.0 **** 0.06
850 H 29.16291372369856 99.57289085174244 93.50737273713767 H 0.0 **** 0.06
851 C 14.223022299492825 13.711926391318883 66.57091995451225 C 0.0 **** -0.24
852 H 13.901810468992316 12.816812634691985 66.03868313384719 H 0.0 **** 0.06
853 H 15.146135485065031 13.502401539391514 67.1101472253195 H 0.0 **** 0.06
854 H 13.44811069857635 14.011478458037686 67.27720980312355 H 0.0 **** 0.06
855 H 14.39329607016716 14.517206834002792 65.8569508101149 H 0.0 **** 0.06
856 C 16.325711235790607 41.8831753926917 51.33132874345448 C 0.0 **** -0.24
857 H 16.706489350567068 41.94460981191656 52.3500001765136 H 0.0 **** 0.06
858 H 15.378603725684243 42.41971453470644 51.26492162627099 H 0.0 **** 0.06
859 H 16.170169475636015 40.83733553797801 51.06416857879394 H 0.0 **** 0.06
860 H 17.045788383315866 42.330201566268855 50.64650015549927 H 0.0 **** 0.06
861 C 46.78251147762222 10.409437515570602 2.2548392181390398 C 0.0 **** -0.24
862 H 46.456863648202955 10.174018713207573 1.2415153705527615 H 0.0 **** 0.06
863 H 47.2701448672255 11.383942176498465 2.2628420398251023 H 0.0 **** 0.06
864 H 47.484710012886524 9.648221873406598 2.595693623586044 H 0.0 **** 0.06
865 H 45.917345028832074 10.428672856565655 2.9184948597398233 H 0.0 **** 0.06
866 C 85.44534263176688 28.068278983747916 95.72407377596278 C 0.0 **** -0.24
867 H 85.43197121126894 27.295468596930164 94.95636551303278 H 0.0 **** 0.06
868 H 84.56306024073326 28.700947148767 95.61838746830767 H 0.0 **** 0.06
869 H 86.34280790936799 28.67578406925412 95.61261383067438 H 0.0 **** 0.06
870 H 85.44244320490772 27.60173438291264 96.70931155120945 H 0.0 **** 0.06
871 C 34.71335738431716 13.279225928535482 4.753041039024083 C 0.0 **** -0.24
872 H 33.91144349872182 13.824420207229707 4.254736838907775 H 0.0 **** 0.06
873 H 35.29120118559133 12.725773817897789 4.0117528928199135 H 0.0 **** 0.06
874 H 34.2853947405826 12.582969028655327 5.4734318882819935 H 0.0 **** 0.06
875 H 35.36505716358245 13.983599183479896 5.270275474698337 H 0.0 **** 0.06
876 C 101.92615643438589 16.807583985799468 80.4303728784979 C 0.0 **** -0.24
877 H 101.66554391845321 17.787214278497913 80.83117874777889 H 0.0 **** 0.06
878 H 101.59141039567523 16.032610424846254 81.1208385659084 H 0.0 **** 0.06
879 H 103.00693478400007 16.742070119717056 80.30669667876077 H 0.0 **** 0.06
880 H 101.4404322986526 16.668785528134833 79.46444752473602 H 0.0 **** 0.06
881 C 100.52660048288335 25.521768696839022 81.75034586611554 C 0.0 **** -0.24
882 H 99.67255425375723 26.0800918430224 82.13264024589972 H 0.0 **** 0.06
883 H 100.18976503546473 24.553478055632848 81.37826130967034 H 0.0 **** 0.06
884 H 101.24978012027032 25.370819639381804 82.5518677506555 H 0.0 **** 0.06
885 H 100.99315101669546 26.08124390250237 80.93938665801255 H 0.0 **** 0.06
886 C 52.0475959793451 61.86301270623798 24.310104786036973 C 0.0 **** -0.24
887 H 52.620515348441195 61.680152645418616 25.21939150939248 H 0.0 **** 0.06
888 H 52.24442163861797 61.066156661242175 23.591589699366693 H 0.0 **** 0.06
889 H 52.3429649371579 62.820725046265466 23.880389723472987 H 0.0 **** 0.06
890 H 50.98450090176175 61.88382707169389 24.548334323557256 H 0.0 **** 0.06
891 C 46.61146417973539 30.981436845622795 101.22193103146876 C 0.0 **** -0.24
892 H 46.76021546298506 30.57911029008079 100.22014457546396 H 0.0 **** 0.06
893 H 46.14759645420783 31.965570601977987 101.15224432516783 H 0.0 **** 0.06
894 H 47.574598934786074 31.067860759828392 101.72587957118111 H 0.0 **** 0.06
895 H 45.96386600806137 30.31364105341504 101.78865939670112 H 0.0 **** 0.06
896 C 100.79055592893451 89.79838296254752 108.22344659206941 C 0.0 **** -0.24
897 H 99.9930290339199 90.48980887321932 107.94937205742573 H 0.0 **** 0.06
898 H 100.40654936264933 88.7776291966212 108.2082968423454 H 0.0 **** 0.06
899 H 101.1497342453553 90.03721846504425 109.22464352017673 H 0.0 **** 0.06
900 H 101.61105603565285 89.88998195548743 107.51205224956327 H 0.0 **** 0.06
901 C 63.99645928563433 71.67132121203747 101.2065778267511 C 0.0 **** -0.24
902 H 64.76034046804155 71.8026786035814 100.4399745890238 H 0.0 **** 0.06
903 H 63.045492489846296 72.06030769539558 100.84133345843942 H 0.0 **** 0.06
904 H 64.28856380880619 72.21013322911301 102.1071388833942 H 0.0 **** 0.06
905 H 63.89139998000229 70.61114480974783 101.43587511038635 H 0.0 **** 0.06
906 C 53.68970278102512 51.16080169297038 101.64847171564759 C 0.0 **** -0.24
907 H 53.484245586106795 50.16710611359946 101.25127134599936 H 0.0 **** 0.06
908 H 54.39858550654009 51.08227234880991 102.47340820448932 H 0.0 **** 0.06
909 H 52.7624243079928 51.607424390718705 102.00686746633187 H 0.0 **** 0.06
910 H 54.113555723460564 51.786403918753535 100.86233984576992 H 0.0 **** 0.06
911 C 46.54614130764236 52.55705135010544 51.7754560807808 C 0.0 **** -0.24
912 H 46.71094468029935 51.695258774255336 51.1289368445303 H 0.0 **** 0.06
913 H 46.75640714428826 52.281300960613834 52.80862727270247 H 0.0 **** 0.06
914 H 45.50960980219497 52.88284888929657 51.689055104851064 H 0.0 **** 0.06
915 H 47.2080472921449 53.36907368533586 51.473553855196016 H 0.0 **** 0.06
916 C 6.283381899263929 73.92277489720006 101.85257233018518 C 0.0 **** -0.24
917 H 6.458710447797998 74.71609034722627 101.12551231964136 H 0.0 **** 0.06
918 H 7.210023333800052 73.70865446956157 102.3869251384528 H 0.0 **** 0.06
919 H 5.945875046225822 73.02479332333571 101.3363641540837 H 0.0 **** 0.06
920 H 5.520349740505196 74.24342259178856 102.5621868288639 H 0.0 **** 0.06
921 C 74.80650621913043 46.632993326574365 9.602223648178352 C 0.0 **** -0.24
922 H 73.80057471988779 46.47506931340898 9.991535312177348 H 0.0 **** 0.06
923 H 74.77588462104228 47.382701222226345 8.810774859259851 H 0.0 **** 0.06
924 H 75.19149927972006 45.695457239434695 9.201149891942876 H 0.0 **** 0.06
925 H 75.45667271957635 46.97853185840483 10.405546337531902 H 0.0 **** 0.06
926 C 88.12685120659286 18.519466814417584 44.80398120713687 C 0.0 **** -0.24
927 H 88.49186196259814 18.888675924990608 43.846251889086666 H 0.0 **** 0.06
928 H 87.46864492224142 19.2639039744422 45.253666220269665 H 0.0 **** 0.06
929 H 88.97156109491094 18.333493194819482 45.4677950234452 H 0.0 **** 0.06
930 H 87.57522312493211 17.592775248675608 44.64963461173991 H 0.0 **** 0.06
931 C 65.80338270180036 67.88839593441448 77.77807709432741 C 0.0 **** -0.24
932 H 66.53283860956678 67.70774930711966 78.56765711569152 H 0.0 **** 0.06
933 H 66.31318594307828 67.92763983310715 76.81491493011205 H 0.0 **** 0.06
934 H 65.29830444744313 68.83699555636186 77.96045980003584 H 0.0 **** 0.06
935 H 65.07033473901775 67.08160269608611 77.76853246932104 H 0.0 **** 0.06
936 C 23.648573751555432 55.68734226294117 79.38544975645624 C 0.0 **** -0.24
937 H 22.7640605433146 55.07695118202162 79.20427352282223 H 0.0 **** 0.06
938 H 23.346062224440175 56.71438991398145 79.58849310971353 H 0.0 **** 0.06
939 H 24.2915120553331 55.66474032253086 78.505640564826 H 0.0 **** 0.06
940 H 24.19292839446217 55.29278453798247 80.24421341724835 H 0.0 **** 0.06
941 C 40.87803401091361 23.110662461351865 8.189860945938992 C 0.0 **** -0.24
942 H 41.91824911450311 23.39611700302565 8.033396987876714 H 0.0 **** 0.06
943 H 40.54542456243729 23.468065690518458 9.16478794621546 H 0.0 **** 0.06
944 H 40.790059555553 22.02482627282886 8.151690205437863 H 0.0 **** 0.06
945 H 40.25914637172386 23.5524824552715 7.409893101663988 H 0.0 **** 0.06
946 C 67.7357904640028 83.19393088640186 67.74197379093698 C 0.0 **** -0.24
947 H 67.19373112294574 83.524020391232 66.85541451195132 H 0.0 **** 0.06
948 H 67.52762539765175 82.13880770535604 67.9217379461416 H 0.0 **** 0.06
949 H 67.41536367590794 83.7805509667769 68.60325673620332 H 0.0 **** 0.06
950 H 68.80574246321021 83.3323076640213 67.5845687410656 H 0.0 **** 0.06
951 C 104.94873610274797 6.885752353466216 23.577966342467164 C 0.0 **** -0.24
952 H 105.6777639388877 7.263395050583767 22.8607570574963 H 0.0 **** 0.06
953 H 104.34123663784906 7.712381120326995 23.94652843909489 H 0.0 **** 0.06
954 H 105.47054740756434 6.418007083500868 24.41319570344939 H 0.0 **** 0.06
955 H 104.30705110497132 6.151376343309721 23.09266448294096 H 0.0 **** 0.06
956 C 16.082883107550586 73.45541090735459 64.74236621785353 C 0.0 **** -0.24
957 H 15.162659103596297 74.02701511351297 64.86338336608807 H 0.0 **** 0.06
958 H 15.870842426261063 72.54034638058805 64.18970866147328 H 0.0 **** 0.06
959 H 16.484426707784806 73.20349199598886 65.72361659535615 H 0.0 **** 0.06
960 H 16.811004201232365 74.05219940659131 64.19326069212634 H 0.0 **** 0.06
961 C 18.68690435124614 30.196736707105345 17.814161946914737 C 0.0 **** -0.24
962 H 19.537590174603565 30.72298495149542 17.380385298921453 H 0.0 **** 0.06
963 H 18.62006055830679 29.196907107179726 17.383736023948074 H 0.0 **** 0.06
964 H 17.770957832215004 30.74800566866341 17.59785356607682 H 0.0 **** 0.06
965 H 18.818806305311284 30.12038256922642 18.89319606304946 H 0.0 **** 0.06
966 C 47.74809988915424 26.83015822154283 107.47791437696688 C 0.0 **** -0.24
967 H 47.16756748486552 26.00444091548988 107.88967620560831 H 0.0 **** 0.06
968 H 48.525692626559945 27.114928858531755 108.18797778466117 H 0.0 **** 0.06
969 H 47.091468962564015 27.680164245398828 107.2971625329613 H 0.0 **** 0.06
970 H 48.207616667383576 26.519456098964525 106.54005020129 H 0.0 **** 0.06
971 C 23.384841471605444 94.89117911026592 88.6817192898987 C 0.0 **** -0.24
972 H 24.39262757632165 95.26645330108168 88.50192158347625 H 0.0 **** 0.06
973 H 23.397003888823896 94.21474402559176 89.53709373873869 H 0.0 **** 0.06
974 H 23.034917528901886 94.35502003316921 87.799192551749 H 0.0 **** 0.06
975 H 22.717982499147556 95.72745873980584 88.88772206504984 H 0.0 **** 0.06
976 C 93.35113626156532 43.897559411352034 18.78348919879545 C 0.0 **** -0.24
977 H 92.89263370901747 42.92191958072348 18.945124801548445 H 0.0 **** 0.06
978 H 94.43456519145606 43.8058671118026 18.859712584354213 H 0.0 **** 0.06
979 H 92.99118198749774 44.59682580453523 19.5385105154665 H 0.0 **** 0.06
980 H 93.08539849393031 44.26367325682884 17.791875455795378 H 0.0 **** 0.06
981 C 65.66452402820326 51.38758692684922 36.84059330019315 C 0.0 **** -0.24
982 H 64.96015471003045 51.92388929315081 36.2039258693174 H 0.0 **** 0.06
983 H 66.44008809452924 52.074542506151914 37.18131784167997 H 0.0 **** 0.06
984 H 66.12087487905394 50.57662994625354 36.274382802364414 H 0.0 **** 0.06
985 H 65.13743396423466 50.978017744000574 37.70217200812506 H 0.0 **** 0.06
986 C 46.142894288940454 14.303902529099712 24.86172742937589 C 0.0 **** -0.24
987 H 45.36205872216925 13.562428418051226 24.696946912932617 H 0.0 **** 0.06
988 H 47.11840851637777 13.818799588935473 24.824192454642173 H 0.0 **** 0.06
989 H 46.00490090896574 14.767397899504363 25.838428297611273 H 0.0 **** 0.06
990 H 46.08746924121641 15.068445703596435 24.08583336058922 H 0.0 **** 0.06
991 C 66.21879573452759 13.194630927473995 38.976355342289025 C 0.0 **** -0.24
992 H 66.59717524747327 14.08581880962879 38.47696594711692 H 0.0 **** 0.06
993 H 65.28876950043926 13.433591875375612 39.491963324213884 H 0.0 **** 0.06
994 H 66.95567138822776 12.843103648556223 39.69931359240934 H 0.0 **** 0.06
995 H 66.03441386438493 12.414004190098083 38.23769033039241 H 0.0 **** 0.06
996 C 25.559583121726405 33.60136513112352 35.04332244384449 C 0.0 **** -0.24
997 H 25.687453536007922 33.05039157130722 35.97484914947819 H 0.0 **** 0.06
998 H 26.41305136134764 34.263337480184525 34.89319797007906 H 0.0 **** 0.06
999 H 24.645258432467585 34.1928848335119 35.0941904563509 H 0.0 **** 0.06
1000 H 25.492866754379122 32.899818909082185 34.21203516856639 H 0.0 **** 0.06
1001 C 3.7775140079796863 73.41505764322426 28.73646727973818 C 0.0 **** -0.24
1002 H 3.137627760820232 74.2555198060444 28.46756083258765 H 0.0 **** 0.06
1003 H 4.77505670380758 73.57174935861929 28.324824160099126 H 0.0 **** 0.06
1004 H 3.357690527438484 72.49492706125156 28.329739237909962 H 0.0 **** 0.06
1005 H 3.8397987404488134 73.33816081282451 29.821301436980093 H 0.0 **** 0.06
1006 C 80.80480174488042 83.07456224006962 68.4057421921666 C 0.0 **** -0.24
1007 H 81.22148435702906 83.61007918134563 67.55259159204911 H 0.0 **** 0.06
1008 H 81.17571915763477 83.51874517810562 69.32945509308561 H 0.0 **** 0.06
1009 H 81.10554687611574 82.0276928640865 68.35882064385754 H 0.0 **** 0.06
1010 H 79.71764853282923 83.1427801888566 68.38088479734165 H 0.0 **** 0.06
1011 C 53.415631647613964 82.53694000121894 67.02565466032559 C 0.0 **** -0.24
1012 H 54.004556542979344 83.45108800527333 67.09568744516451 H 0.0 **** 0.06
1013 H 52.727719976170135 82.48288460069631 67.8688463515713 H 0.0 **** 0.06
1014 H 54.08111538534132 81.67361221444128 67.0429254232672 H 0.0 **** 0.06
1015 H 52.84890248093632 82.54007067433969 66.09419235939026 H 0.0 **** 0.06
1016 C 80.64202420704652 5.903964876469843 48.71717029448308 C 0.0 **** -0.24
1017 H 79.59198682077692 6.133214829232287 48.537875461702754 H 0.0 **** 0.06
1018 H 80.95611673370135 5.094299374295758 48.057532171702064 H 0.0 **** 0.06
1019 H 80.77465767294785 5.599128148028825 49.75491334099041 H 0.0 **** 0.06
1020 H 81.24613528137607 6.789517566688616 48.51888012045353 H 0.0 **** 0.06
1021 C 26.74567933626963 7.208492043981693 16.203647434948152 C 0.0 **** -0.24
1022 H 26.6534827823113 6.950495807896544 17.259300568286847 H 0.0 **** 0.06
1023 H 26.234894237569904 8.152458470521907 16.01472766815533 H 0.0 **** 0.06
1024 H 26.295384109317126 6.422883577010339 15.597612590356903 H 0.0 **** 0.06
1025 H 27.800697610067687 7.30688664163452 15.945673139947615 H 0.0 **** 0.06
1026 C 32.72847808992037 22.476098010696195 38.75033324215758 C 0.0 **** -0.24
1027 H 31.98736671854809 21.874688491349286 38.222739348156836 H 0.0 **** 0.06
1028 H 33.68340070094126 21.950143433696514 38.75797162330741 H 0.0 **** 0.06
1029 H 32.39649859270878 22.642843655036994 39.77481858088896 H 0.0 **** 0.06
1030 H 32.844152232763236 23.434556210782674 38.245466880306196 H 0.0 **** 0.06
1031 C 71.77583222829784 106.46864740563353 66.14192404547777 C 0.0 **** -0.24
1032 H 71.48009361297272 105.51015382109384 66.56859775872954 H 0.0 **** 0.06
1033 H 70.88531312913793 107.04192699275654 65.8851752281027 H 0.0 **** 0.06
1034 H 72.36928689123299 106.29697802419483 65.24327396061435 H 0.0 **** 0.06
1035 H 72.36893465762478 107.02217352713936 66.86902445758122 H 0.0 **** 0.06
1036 C 108.407209484237 1.393023312994174 16.28911284210693 C 0.0 **** -0.24
1037 H 108.34400496649818 2.477448808139229 16.189136044650837 H 0.0 **** 0.06
1038 H 109.4131491593767 1.1161120593633456 16.6060596941183 H 0.0 **** 0.06
1039 H 108.18641337489368 0.9263031034616631 15.32978964608887 H 0.0 **** 0.06
1040 H 107.6857906841002 1.0553074413106032 17.032586172987436 H 0.0 **** 0.06
1041 C 71.86331965698872 33.259814815060395 72.80069730614235 C 0.0 **** -0.24
1042 H 72.30337801120783 32.85356628833949 71.89033942161036 H 0.0 **** 0.06
1043 H 72.61380770268931 33.837694544998385 73.34106245724674 H 0.0 **** 0.06
1044 H 71.51076334150764 32.44282236399323 73.4295956047814 H 0.0 **** 0.06
1045 H 71.02488434149325 33.90640596979273 72.54125396874672 H 0.0 **** 0.06
1046 C 110.03831337432376 25.859195291562685 10.101836163812411 C 0.0 **** -0.24
1047 H 109.04702225671389 25.415172697582364 10.012211529329498 H 0.0 **** 0.06
1048 H 110.44700364271671 25.638198762524823 11.088476722480163 H 0.0 **** 0.06
1049 H 109.96622233200924 26.93872877055155 9.97126795261332 H 0.0 **** 0.06
1050 H 110.69297495588427 25.44368740116917 9.33527881080588 H 0.0 **** 0.06
1051 C 110.17637974250839 87.8932414807972 0.7412321982185759 C 0.0 **** -0.24
1052 H 109.23777494861045 88.42135664198668 0.573487913172011 H 0.0 **** 0.06
1053 H 111.01168540188876 88.56937555944478 0.5573193771236014 H 0.0 **** 0.06
1054 H 110.24043493787167 87.04248506786013 0.06387991258926906 H 0.0 **** 0.06
1055 H 110.2146286382637 87.54042986383632 1.7718372223914773 H 0.0 **** 0.06
1056 C 63.806887827554306 38.57057662505048 52.78563363603641 C 0.0 **** -0.24
1057 H 63.333584444636415 37.76485559024792 53.3480705887156 H 0.0 **** 0.06
1058 H 63.0771673540396 39.02027384152336 52.1122309480035 H 0.0 **** 0.06
1059 H 64.63797665939333 38.169296709970524 52.20649421709363 H 0.0 **** 0.06
1060 H 64.17772283153556 39.32719269301276 53.47756014210355 H 0.0 **** 0.06
1061 C 6.5135890680613215 51.522742049894134 32.793486022627604 C 0.0 **** -0.24
1062 H 5.566612165170824 51.843243773145275 33.22854366905344 H 0.0 **** 0.06
1063 H 6.330366087079298 50.725452020120485 32.07243905317972 H 0.0 **** 0.06
1064 H 7.169075030911628 51.155868455009 33.58268219513252 H 0.0 **** 0.06
1065 H 6.9858776644566944 52.36620844204691 32.28999654573752 H 0.0 **** 0.06
1066 C 24.01478381646086 76.91548949263331 85.72575342035987 C 0.0 **** -0.24
1067 H 24.83248058176847 77.29193077339204 86.3395527709699 H 0.0 **** 0.06
1068 H 23.08724807570112 77.4116686644146 86.01310592238899 H 0.0 **** 0.06
1069 H 23.913375205997493 75.84087869910097 85.8744330135674 H 0.0 **** 0.06
1070 H 24.22506464263148 77.11836370321133 84.67538882284038 H 0.0 **** 0.06
1071 C 79.46167581487262 31.01830709425525 4.089314690412339 C 0.0 **** -0.24
1072 H 78.49937714250675 31.493073008408714 4.283920403446535 H 0.0 **** 0.06
1073 H 80.15606391362667 31.265081791052978 4.892573153721271 H 0.0 **** 0.06
1074 H 79.85869857847484 31.37966789309857 3.1401997992942547 H 0.0 **** 0.06
1075 H 79.33007519708636 29.9375896154275 4.040368616747452 H 0.0 **** 0.06
1076 C 99.75442458822691 38.85803243439554 64.03716008732704 C 0.0 **** -0.24
1077 H 98.67924360471402 39.02469202975112 63.98063480490924 H 0.0 **** 0.06
1078 H 100.10529343350579 38.431182832501605 63.098248941224085 H 0.0 **** 0.06
1079 H 99.97293808459779 38.17053829585325 64.8547030078235 H 0.0 **** 0.06
1080 H 100.25975982358234 39.80769181009444 64.2170244126014 H 0.0 **** 0.06
1081 C 42.28565266322346 34.57188525775979 96.26965201515861 C 0.0 **** -0.24
1082 H 41.36709095417598 33.98598517066819 96.28428634047924 H 0.0 **** 0.06
1083 H 43.11001636004153 33.94575253762693 95.9267480939956 H 0.0 **** 0.06
1084 H 42.499872582211026 34.93809771486622 97.27326396752176 H 0.0 **** 0.06
1085 H 42.165819454959944 35.41783383710151 95.59208520330407 H 0.0 **** 0.06
1086 C 24.951469895637956 35.22014346772238 17.100348551617344 C 0.0 **** -0.24
1087 H 25.74622368747788 35.01886978816509 16.3824752918444 H 0.0 **** 0.06
1088 H 23.983904433358305 35.06406901105191 16.623215890033862 H 0.0 **** 0.06
1089 H 25.025515521817567 36.252358008557906 17.443621261085184 H 0.0 **** 0.06
1090 H 25.05113562967307 34.546140630573404 17.9514147476836 H 0.0 **** 0.06
1091 C 75.06579629442832 62.047589589222014 94.08715799552635 C 0.0 **** -0.24
1092 H 75.98883960147207 62.19668494040292 94.64729401092075 H 0.0 **** 0.06
1093 H 74.79817466020955 62.971869170235834 93.57460685177739 H 0.0 **** 0.06
1094 H 74.26640421742913 61.76710653011372 94.77369010616292 H 0.0 **** 0.06
1095 H 75.20973541578932 61.253239495661035 93.35500898583007 H 0.0 **** 0.06
1096 C 73.90218044085293 103.39518809441324 40.658987930980345 C 0.0 **** -0.24
1097 H 74.20590616898482 104.23560174896772 40.03435096927828 H 0.0 **** 0.06
1098 H 73.41716240739436 103.76993236143312 41.56109216108859 H 0.0 **** 0.06
1099 H 74.78134554524615 102.81166728100061 40.93344183240423 H 0.0 **** 0.06
1100 H 73.20556810042945 102.76473842191768 40.107029459926544 H 0.0 **** 0.06
1101 C 43.65666426608266 33.13186338259291 46.54711741010627 C 0.0 **** -0.24
1102 H 42.93008748251361 32.32850166677051 46.66672024488528 H 0.0 **** 0.06
1103 H 43.81898845150795 33.62071150029823 47.50762097474188 H 0.0 **** 0.06
1104 H 43.27830685274171 33.85816341232362 45.82813017688102 H 0.0 **** 0.06
1105 H 44.598115548998976 32.71827305119676 46.185362991946704 H 0.0 **** 0.06
1106 C 79.82480440701192 31.844400770310443 37.58117358219821 C 0.0 **** -0.24
1107 H 78.9529118960954 32.46764795486587 37.38203509383555 H 0.0 **** 0.06
1108 H 80.05302281680103 31.245611473557915 36.699497076080846 H 0.0 **** 0.06
1109 H 79.61523630695667 31.18531330448758 38.42409629062476 H 0.0 **** 0.06
1110 H 80.67867662047709 32.47936952589512 37.820643269258305 H 0.0 **** 0.06
1111 C 48.454572230772534 103.45859597755819 92.1773978834525 C 0.0 **** -0.24
1112 H 47.38079792839563 103.48378145753674 91.98918731384805 H 0.0 **** 0.06
1113 H 48.915888057696904 104.35856944996146 91.76833518795462 H 0.0 **** 0.06
1114 H 48.885964782241 102.57958550479819 91.69915343169458 H 0.0 **** 0.06
1115 H 48.63521128563821 103.41380622406291 93.25119168109899 H 0.0 **** 0.06
1116 C 102.1683535618253 93.52666838939314 81.33790493690387 C 0.0 **** -0.24
1117 H 101.77929645264297 93.62973050054683 82.35058132577032 H 0.0 **** 0.06
1118 H 101.33922080574459 93.51570800114979 80.62938214331143 H 0.0 **** 0.06
1119 H 102.72883013363727 92.59500479995421 81.25667235795328 H 0.0 **** 0.06
1120 H 102.82610117829496 94.36736461149872 81.11414002490602 H 0.0 **** 0.06
1121 C 63.059431291021724 98.03526399892633 26.8676507092774 C 0.0 **** -0.24
1122 H 62.60802274229542 98.064203909707 27.859553201637524 H 0.0 **** 0.06
1123 H 62.44202209763023 97.42730560252363 26.205963294516465 H 0.0 **** 0.06
1124 H 64.05682073972551 97.6013704592297 26.934556513278153 H 0.0 **** 0.06
1125 H 63.12844911685727 99.04778323708705 26.470718682031645 H 0.0 **** 0.06
1126 C 101.22246958332583 5.011318675393454 28.401486740396415 C 0.0 **** -0.24
1127 H 101.27803324279499 4.832631562790084 29.475384471038232 H 0.0 **** 0.06
1128 H 101.71795217723712 4.196110841413599 27.872039828161014 H 0.0 **** 0.06
1129 H 101.71681365535841 5.953203877583036 28.163146757283087 H 0.0 **** 0.06
1130 H 100.17772382370441 5.06101371440019 28.095852324640767 H 0.0 **** 0.06
1131 C 61.53323614736949 37.5036083354039 106.88092762375504 C 0.0 **** -0.24
1132 H 62.21610865435882 38.08707337407992 106.26458409505045 H 0.0 **** 0.06
1133 H 60.72181396443449 38.143217463213205 107.23002932893951 H 0.0 **** 0.06
1134 H 62.07275389650957 37.099754668098456 107.73866396748633 H 0.0 **** 0.06
1135 H 61.122657284016526 36.683550231016 106.29189839670488 H 0.0 **** 0.06
1136 C 73.54197638912287 101.34632718956055 86.77898595024358 C 0.0 **** -0.24
1137 H 72.6124549686841 101.6711245967303 86.31145808563993 H 0.0 **** 0.06
1138 H 73.32576238543407 100.57895926208965 87.52209743980141 H 0.0 **** 0.06
1139 H 74.02170720856795 102.19751275498336 87.26351899623027 H 0.0 **** 0.06
1140 H 74.20835171466416 100.93967517620271 86.01877298055933 H 0.0 **** 0.06
1141 C 109.72383387330356 86.62461242373979 88.64357511816549 C 0.0 **** -0.24
1142 H 109.28365388911072 87.03767704106286 89.55120110853493 H 0.0 **** 0.06
1143 H 110.77151170417824 86.38428379531496 88.82553133420912 H 0.0 **** 0.06
1144 H 109.65280667912106 87.3573282136148 87.83936652009753 H 0.0 **** 0.06
1145 H 109.18679423636394 85.71988802873841 88.35927261677573 H 0.0 **** 0.06
1146 C 42.971830188157185 32.961884394003334 88.18370003035409 C 0.0 **** -0.24
1147 H 43.74981340176913 33.465550783396964 87.6087103851169 H 0.0 **** 0.06
1148 H 43.25735674461316 32.93570081151876 89.23529631006471 H 0.0 **** 0.06
1149 H 42.8484145599578 31.944623273613047 87.81387836664635 H 0.0 **** 0.06
1150 H 42.03279009824024 33.504157798771956 88.07453511262281 H 0.0 **** 0.06
1151 C 30.6438828872528 64.68217083894598 76.46867473153821 C 0.0 **** -0.24
1152 H 30.755279557481288 65.50555050512128 75.7628266861204 H 0.0 **** 0.06
1153 H 29.70732039287111 64.1597833753583 76.27160925380858 H 0.0 **** 0.06
1154 H 30.636288968151092 65.07341746022519 77.48574705867483 H 0.0 **** 0.06
1155 H 31.47789443529598 63.98951972591419 76.35270947970739 H 0.0 **** 0.06
1156 C 45.63490818871325 107.09554592664144 13.16711362716623 C 0.0 **** -0.24
1157 H 46.163456621162204 107.8852275122126 12.632362918156446 H 0.0 **** 0.06
1158 H 45.29558964781879 107.47334954126315 14.131956165158925 H 0.0 **** 0.06
1159 H 46.30601763986093 106.2504137957187 13.322772086680544 H 0.0 **** 0.06
1160 H 44.774190873705265 106.77244727391799 12.580814437468803 H 0.0 **** 0.06
1161 C 96.65956768789157 52.6930318291194 93.32840213690915 C 0.0 **** -0.24
1162 H 95.95045529234208 53.13518557833225 94.02853742797689 H 0.0 **** 0.06
1163 H 96.2437657892866 52.724162426923115 92.3214014471682 H 0.0 **** 0.06
1164 H 96.85219628012737 51.6583161886773 93.61049159285291 H 0.0 **** 0.06
1165 H 97.59354841371884 53.25599875139118 93.3540550287021 H 0.0 **** 0.06
1166 C 52.73615113638237 63.953068616399136 9.329089882854731 C 0.0 **** -0.24
1167 H 52.15932675472673 64.29957639436901 8.471295764451611 H 0.0 **** 0.06
1168 H 52.12886711487949 64.02926188150238 10.23023935066044 H 0.0 **** 0.06
1169 H 53.62843103496159 64.5687627832089 9.437906040244826 H 0.0 **** 0.06
1170 H 53.027830646383784 62.9149908058409 9.173329823165744 H 0.0 **** 0.06
1171 C 39.327213802821795 34.74084826763322 101.07724863796331 C 0.0 **** -0.24
1172 H 40.21640554626326 34.39910692169209 100.5462009038169 H 0.0 **** 0.06
1173 H 38.71086067575442 33.88244250022158 101.3415685545639 H 0.0 **** 0.06
1174 H 38.75787924635533 35.413178638076865 100.43508449242879 H 0.0 **** 0.06
1175 H 39.625492726101996 35.268847895123365 101.98285605722967 H 0.0 **** 0.06
1176 C 0.9838025743691574 92.72755125494278 94.74540374621161 C 0.0 **** -0.24
1177 H 1.9806007816439735 92.2870281377727 94.77889230391666 H 0.0 **** 0.06
1178 H 1.0441045510831737 93.73166703907332 94.3249433746344 H 0.0 **** 0.06
1179 H 0.5765571317407145 92.78016619033097 95.75427810234675 H 0.0 **** 0.06
1180 H 0.334933000107533 92.1111881913 94.12342821181996 H 0.0 **** 0.06
1181 C 63.825721647687146 36.44984702753584 100.92147357612659 C 0.0 **** -0.24
1182 H 63.042536921066414 37.07775423256885 100.49492107928126 H 0.0 **** 0.06
1183 H 63.47908860262646 36.027915935796386 101.8640961665926 H 0.0 **** 0.06
1184 H 64.71731270035866 37.05148812665965 101.09752500123102 H 0.0 **** 0.06
1185 H 64.06280311732087 35.643816230707046 100.22707782303674 H 0.0 **** 0.06
1186 C 4.008561277414131 31.18116606338242 87.39044911566549 C 0.0 **** -0.24
1187 H 3.4665906857995026 30.41024418575259 87.93787404139289 H 0.0 **** 0.06
1188 H 4.863249922439138 30.732664039201694 86.88349052379698 H 0.0 **** 0.06
1189 H 4.356896471210703 31.94328077371304 88.0873583490544 H 0.0 **** 0.06
1190 H 3.3458766863719234 31.63641184492778 86.65411348060422 H 0.0 **** 0.06
1191 C 11.643072127961958 27.139834946585268 28.893263278491915 C 0.0 **** -0.24
1192 H 10.810163911241716 27.80986063183471 28.678973194829354 H 0.0 **** 0.06
1193 H 11.57559881999802 26.79668450670212 29.92574372434828 H 0.0 **** 0.06
1194 H 12.583052923535575 27.67080526656025 28.746592559196444 H 0.0 **** 0.06
1195 H 11.600851052715015 26.283033546265045 28.22155320570991 H 0.0 **** 0.06
1196 C 96.4598361870992 12.725649082390362 61.393486674433916 C 0.0 **** -0.24
1197 H 96.99141652781378 13.668794139088078 61.52033492870457 H 0.0 **** 0.06
1198 H 97.16774848135469 11.898752904525423 61.44659606261011 H 0.0 **** 0.06
1199 H 95.96247551889826 12.717397022053888 60.42336038108107 H 0.0 **** 0.06
1200 H 95.7166602102917 12.6193049142924 62.183232252284625 H 0.0 **** 0.06
1201 C 84.45408221310731 39.588685440134874 58.716992413845844 C 0.0 **** -0.24
1202 H 85.3818223629473 40.051482203492824 58.37850434895785 H 0.0 **** 0.06
1203 H 83.8286750179712 40.341640765547965 59.19682244683435 H 0.0 **** 0.06
1204 H 84.68236281164553 38.797668965075474 59.43081704161273 H 0.0 **** 0.06
1205 H 83.92516679504001 39.16703599536331 57.862595591846684 H 0.0 **** 0.06
1206 C 98.85375763617279 16.54980830685467 58.87260002481251 C 0.0 **** -0.24
1207 H 98.42437283303437 17.421813966157906 59.36643864204699 H 0.0 **** 0.06
1208 H 98.6165586469256 16.582007283737287 57.809258315010894 H 0.0 **** 0.06
1209 H 98.43717973838078 15.643203768699319 59.31055522409996 H 0.0 **** 0.06
1210 H 99.93528800124466 16.55354087745343 59.00489826741784 H 0.0 **** 0.06
1211 C 67.55206941617367 50.467506288634404 78.38837812141668 C 0.0 **** -0.24
1212 H 66.7867617943311 49.81636613988827 78.81028150048493 H 0.0 **** 0.06
1213 H 68.30393765327082 50.68364844678333 79.14864093771328 H 0.0 **** 0.06
1214 H 67.09358181283521 51.39882816838933 78.0556884563195 H 0.0 **** 0.06
1215 H 68.02487273026932 49.97196811637294 77.54051865725427 H 0.0 **** 0.06
1216 C 23.421144172369836 46.18877036638372 1.9242264698192804 C 0.0 **** -0.24
1217 H 24.45304839870056 45.87215834239436 2.076591934712736 H 0.0 **** 0.06
1218 H 22.74739309184538 45.39066528067306 2.2363185973372506 H 0.0 **** 0.06
1219 H 23.260706972641543 46.40971405126837 0.8693570538358077 H 0.0 **** 0.06
1220 H 23.22522630088413 47.08320434123337 2.516947200905748 H 0.0 **** 0.06
1221 C 105.72194380149398 38.018937369538065 29.22935083938279 C 0.0 **** -0.24
1222 H 105.65608894405153 36.994707723378255 29.597026681536192 H 0.0 **** 0.06
1223 H 105.13713837236372 38.673787723261626 29.87434564000864 H 0.0 **** 0.06
1224 H 105.33181281237637 38.06484841954527 28.21286734676778 H 0.0 **** 0.06
1225 H 106.76433943553945 38.339683230113536 29.23417127264588 H 0.0 **** 0.06
1226 C 5.368224993137886 59.45247918089568 90.61592917038526 C 0.0 **** -0.24
1227 H 5.186307517446238 59.17311176818579 89.5778493829519 H 0.0 **** 0.06
1228 H 6.441925903213161 59.520707847674146 90.79114315627547 H 0.0 **** 0.06
1229 H 4.938069249127608 58.69820326475194 91.27460860382612 H 0.0 **** 0.06
1230 H 4.904231190695668 60.41885846491245 90.81825233668376 H 0.0 **** 0.06
1231 C 28.01521858943258 45.179953879441655 83.33100369945376 C 0.0 **** -0.24
1232 H 28.36911415124638 44.420906688998 84.02855872919557 H 0.0 **** 0.06
1233 H 27.889950570169134 44.73489435347716 82.34374502466841 H 0.0 **** 0.06
1234 H 28.743726012365173 45.98877677924713 83.27541432546482 H 0.0 **** 0.06
1235 H 27.05954439991754 45.57387478206789 83.67730113396411 H 0.0 **** 0.06
1236 C 26.46116060515439 85.55049803696349 64.73742087118404 C 0.0 **** -0.24
1237 H 27.535811569981718 85.66997981675154 64.59637411563398 H 0.0 **** 0.06
1238 H 26.150402348399837 84.57867954792182 64.35356689604689 H 0.0 **** 0.06
1239 H 25.93378400800364 86.3388533072038 64.20057954389881 H 0.0 **** 0.06
1240 H 26.22585322583285 85.61416963209254 65.79982856061619 H 0.0 **** 0.06
1241 C 64.89216243465472 7.588722388452311 77.2303359880861 C 0.0 **** -0.24
1242 H 64.86795667431625 7.401495239867444 78.30401695759429 H 0.0 **** 0.06
1243 H 64.0083745162359 8.159391795170265 76.94215000576452 H 0.0 **** 0.06
1244 H 64.90173616356964 6.6389206302543755 76.69584774212136 H 0.0 **** 0.06
1245 H 65.78871601374635 8.155609832729368 76.98044198516065 H 0.0 **** 0.06
1246 C 49.61464444492904 42.43849202513159 1.6632841476053324 C 0.0 **** -0.24
1247 H 48.674703719351506 42.138257520558966 2.126990341344009 H 0.0 **** 0.06
1248 H 49.41506902155744 42.8631378246927 0.6794765833296497 H 0.0 **** 0.06
1249 H 50.26301895109573 41.5682006505076 1.560055409359009 H 0.0 **** 0.06
1250 H 50.105336435893726 43.1839499320987 2.2887636365009447 H 0.0 **** 0.06
1251 C 46.21512738552059 68.71139967814196 26.215378662870762 C 0.0 **** -0.24
1252 H 45.94781119366172 68.45983853579378 27.24189500264788 H 0.0 **** 0.06
1253 H 47.20745302628353 69.16318558983482 26.19840529978194 H 0.0 **** 0.06
1254 H 45.48750599074123 69.41603270355432 25.812503813205126 H 0.0 **** 0.06
1255 H 46.21704890564962 67.80534055775735 25.608427287581094 H 0.0 **** 0.06
1256 C 45.208403779028714 80.01013278330863 110.63688988833587 C 0.0 **** -0.24
1257 H 44.86136565499302 79.06793814558603 111.06106383408645 H 0.0 **** 0.06
1258 H 46.27227213317255 79.93607627689948 110.4100804465527 H 0.0 **** 0.06
1259 H 45.04392668917433 80.81351590608001 111.35405689227832 H 0.0 **** 0.06
1260 H 44.65481045693039 80.22137023028907 109.72101544414703 H 0.0 **** 0.06
1261 C 45.27560773018489 56.02577360241583 102.05134186481536 C 0.0 **** -0.24
1262 H 44.814037030505084 56.1786949465571 103.02726005862334 H 0.0 **** 0.06
1263 H 46.2004131501854 55.46025680780614 102.1716560148505 H 0.0 **** 0.06
1264 H 45.49691651829228 56.99296827079641 101.59886238488639 H 0.0 **** 0.06
1265 H 44.591567252414 55.47186108911847 101.40811383154781 H 0.0 **** 0.06
1266 C 58.39271438121642 100.76954918206101 37.98232989433569 C 0.0 **** -0.24
1267 H 57.67821691588273 101.36387866631527 38.55279603830675 H 0.0 **** 0.06
1268 H 57.85387050572922 100.07951509410495 37.333525660285716 H 0.0 **** 0.06
1269 H 59.02578282155946 100.20592833704396 38.66865175325569 H 0.0 **** 0.06
1270 H 59.012701070914716 101.43064183138293 37.376753517842246 H 0.0 **** 0.06
1271 C 24.485353838383677 37.557070620022614 63.789220232952076 C 0.0 **** -0.24
1272 H 25.542783721629053 37.719268877718775 63.58140907747385 H 0.0 **** 0.06
1273 H 24.161966472338754 36.62939455032216 63.3168438332565 H 0.0 **** 0.06
1274 H 23.90445329451781 38.389484393497014 63.391322471305784 H 0.0 **** 0.06
1275 H 24.333047537210117 37.48952792415349 64.86633930655105 H 0.0 **** 0.06
1276 C 8.400448327971162 5.425682766460454 58.31842667417251 C 0.0 **** -0.24
1277 H 8.85344587349124 4.557254061352779 58.7946266753263 H 0.0 **** 0.06
1278 H 7.314554746511988 5.347499308801076 58.377029055593034 H 0.0 **** 0.06
1279 H 8.705430788449746 5.468046170290762 57.272303915190285 H 0.0 **** 0.06
1280 H 8.727507504905248 6.331633166466986 58.8285745864174 H 0.0 **** 0.06
1281 C 2.839474231329177 104.25938003268237 9.544676955570296 C 0.0 **** -0.24
1282 H 2.814142985073886 103.86138305530426 8.530269510854225 H 0.0 **** 0.06
1283 H 2.6979406875089467 103.44626593176741 10.256953915662805 H 0.0 **** 0.06
1284 H 2.0418163733456822 104.99263946681083 9.666797030735196 H 0.0 **** 0.06
1285 H 3.8022769466639943 104.73619230529846 9.723706656306646 H 0.0 **** 0.06
1286 C 25.871744638898026 56.30771764052751 1.5669220265459387 C 0.0 **** -0.24
1287 H 26.298441592193235 56.71491283528175 0.650187318922363 H 0.0 **** 0.06
1288 H 24.827177874608555 56.04445280801671 1.3957212178348186 H 0.0 **** 0.06
1289 H 25.93443015467443 57.05296331832096 2.3591600465058917 H 0.0 **** 0.06
1290 H 26.427628921139487 55.41688143635074 1.8609599522351488 H 0.0 **** 0.06
1291 C 14.230799044517454 68.38599749467602 69.58960240142369 C 0.0 **** -0.24
1292 H 15.105713141012131 67.78665106601596 69.84270504193194 H 0.0 **** 0.06
1293 H 13.334901288709887 67.90479725921182 69.98406705268033 H 0.0 **** 0.06
1294 H 14.150361780863449 68.47298975105599 68.50611409054613 H 0.0 **** 0.06
1295 H 14.33257751855777 69.37877765608101 70.02781972223681 H 0.0 **** 0.06
1296 C 20.675751999452693 32.39898638550687 76.95344901664934 C 0.0 **** -0.24
1297 H 20.420160248924248 33.19633691314385 76.25523790987694 H 0.0 **** 0.06
1298 H 20.456385861912125 32.72340207664419 77.9703578901795 H 0.0 **** 0.06
1299 H 21.73687892035305 32.16546151746445 76.86642301312021 H 0.0 **** 0.06
1300 H 20.088485117249338 31.510760536824023 76.71982924473747 H 0.0 **** 0.06
1301 C 26.658662386322902 25.280923032928335 58.14082474945355 C 0.0 **** -0.24
1302 H 27.275574482771027 24.591648072573015 58.71724145439154 H 0.0 **** 0.06
1303 H 27.18301413362569 25.55747991483574 57.22584426121481 H 0.0 **** 0.06
1304 H 26.46178221582983 26.174041022557063 58.73266519769342 H 0.0 **** 0.06
1305 H 25.714954869230567 24.796984074916427 57.887684517552906 H 0.0 **** 0.06
1306 C 102.97914432252507 37.79194553897011 25.13604739746284 C 0.0 **** -0.24
1307 H 103.30543402950026 38.82822548805825 25.051859558985505 H 0.0 **** 0.06
1308 H 102.24024253454874 37.70672857497112 25.932780693173836 H 0.0 **** 0.06
1309 H 103.83738200722101 37.15914491189176 25.3668097929704 H 0.0 **** 0.06
1310 H 102.53590507046485 37.473198525985026 24.193005509186907 H 0.0 **** 0.06
1311 C 103.66868198595236 58.808193525223075 86.14815123510385 C 0.0 **** -0.24
1312 H 102.9764410112244 59.593814839416254 86.45074387917862 H 0.0 **** 0.06
1313 H 104.63634765105884 59.24864511846036 85.90704066545621 H 0.0 **** 0.06
1314 H 103.27434216662391 58.29559761046978 85.27001096639884 H 0.0 **** 0.06
1315 H 103.78733804477407 58.094427578519976 86.96260723964747 H 0.0 **** 0.06
1316 C 90.71164789620525 96.83177754607402 70.73372213802901 C 0.0 **** -0.24
1317 H 91.7458135728773 97.15621106908407 70.61179982482517 H 0.0 **** 0.06
1318 H 90.18461080057114 97.53678760639514 71.37737848783331 H 0.0 **** 0.06
1319 H 90.69335456258352 95.84068679605838 71.1875725922039 H 0.0 **** 0.06
1320 H 90.22579337350766 96.79514231913788 69.7585447244063 H 0.0 **** 0.06
1321 C 74.12318840671344 109.0923850495968 59.8228639521634 C 0.0 **** -0.24
1322 H 74.39871561427873 109.14376380794329 58.76979477919207 H 0.0 **** 0.06
1323 H 73.954791925351 110.10032373180793 60.203999155361885 H 0.0 **** 0.06
1324 H 74.92924166298724 108.6206008725814 60.3867954033866 H 0.0 **** 0.06
1325 H 73.21236845661633 108.50505763983405 59.93147415220449 H 0.0 **** 0.06
1326 C 99.82874050992086 76.61347186273014 98.90988277383158 C 0.0 **** -0.24
1327 H 98.98911567699076 76.45058114117148 98.23443516968342 H 0.0 **** 0.06
1328 H 100.37568627773754 77.50458767745272 98.59985740960985 H 0.0 **** 0.06
1329 H 100.49274938998218 75.74934662247819 98.8783148471164 H 0.0 **** 0.06
1330 H 99.45649318910847 76.74993131467804 99.92472238230965 H 0.0 **** 0.06
1331 C 70.04583303066198 83.2389564741012 6.669983569525897 C 0.0 **** -0.24
1332 H 70.01909037847895 82.59361583617266 7.547347784271807 H 0.0 **** 0.06
1333 H 70.20283443266676 82.63181885972523 5.778210487407634 H 0.0 **** 0.06
1334 H 70.85982988270244 83.95549334730998 6.770006873398984 H 0.0 **** 0.06
1335 H 69.09979329187728 83.77375600741976 6.5836526868999385 H 0.0 **** 0.06
1336 C 51.529090175118085 11.044019521864982 48.356136367837195 C 0.0 **** -0.24
1337 H 50.51276895532857 11.32052413987418 48.63359270292905 H 0.0 **** 0.06
1338 H 51.66220194105267 11.180817538476177 47.2829013980329 H 0.0 **** 0.06
1339 H 51.705206121183664 9.999640881576354 48.613711910816846 H 0.0 **** 0.06
1340 H 52.236954015436595 11.674781527789918 48.893195740850366 H 0.0 **** 0.06
1341 C 94.31651823011816 102.21582515802916 95.72963635811331 C 0.0 **** -0.24
1342 H 93.47894753490948 101.67711713619367 95.28523025318802 H 0.0 **** 0.06
1343 H 95.07672522763949 102.39559196919453 94.96993252765188 H 0.0 **** 0.06
1344 H 94.74255789620946 101.62046596022849 96.5384153514152 H 0.0 **** 0.06
1345 H 93.96608745538907 103.1692019771492 96.1260006872793 H 0.0 **** 0.06
1346 C 40.168136129586344 61.90898280104686 63.97289841415147 C 0.0 **** -0.24
1347 H 40.40506882267729 62.966278025706174 64.09143716980208 H 0.0 **** 0.06
1348 H 40.9096338393982 61.30876112796672 64.50116054013006 H 0.0 **** 0.06
1349 H 40.179760615516415 61.65120180491074 62.91406767161345 H 0.0 **** 0.06
1350 H 39.17870460613693 61.7092164141349 64.3843062223167 H 0.0 **** 0.06
1351 C 56.39148639305566 30.90120235846892 105.54094019845996 C 0.0 **** -0.24
1352 H 56.96214878376878 31.185152822115555 104.65697510839794 H 0.0 **** 0.06
1353 H 55.737053745821754 30.062934042971705 105.29636503923496 H 0.0 **** 0.06
1354 H 55.789839753889396 31.74717711876403 105.87238963435453 H 0.0 **** 0.06
1355 H 57.07595338884869 30.607409694844208 106.3372985218067 H 0.0 **** 0.06
1356 C 102.1800478423968 8.557719111413661 11.98773115386848 C 0.0 **** -0.24
1357 H 103.10005652680255 8.733853374894636 11.430264133346043 H 0.0 **** 0.06
1358 H 101.32328261918101 8.797692104140225 11.35810265627299 H 0.0 **** 0.06
1359 H 102.16678125912146 9.189952927913112 12.875320085231692 H 0.0 **** 0.06
1360 H 102.13149604208739 7.510710105139481 12.286144578135179 H 0.0 **** 0.06
1361 C 2.3676377330513674 92.94183503973647 52.923763583294566 C 0.0 **** -0.24
1362 H 2.03004728073131 93.27353317279034 51.94233109887422 H 0.0 **** 0.06
1363 H 1.9714334377509886 91.94692030522043 53.126789583375874 H 0.0 **** 0.06
1364 H 2.0124579764520263 93.63787411363188 53.68467997556613 H 0.0 **** 0.06
1365 H 3.4571744234028188 92.90982803580584 52.941115805306886 H 0.0 **** 0.06
1366 C 54.05785691479819 68.51843895383121 81.35736272111411 C 0.0 **** -0.24
1367 H 53.66305136999474 67.5505290155231 81.0491685535824 H 0.0 **** 0.06
1368 H 54.27978607985447 68.49599967326421 82.42477159648058 H 0.0 **** 0.06
1369 H 53.31889011880341 69.29305858770755 81.15639220516891 H 0.0 **** 0.06
1370 H 54.96943371358096 68.73239538913874 80.80078744658411 H 0.0 **** 0.06
1371 C 32.85277253339376 67.70206219237929 77.16538751923457 C 0.0 **** -0.24
1372 H 33.48612453411931 67.30728138447307 77.95961423283157 H 0.0 **** 0.06
1373 H 33.29515091578327 68.6164165910111 76.76907051501031 H 0.0 **** 0.06
1374 H 31.86320787800628 67.91960431093293 77.56485447958504 H 0.0 **** 0.06
1375 H 32.76827625862961 66.9634728630225 76.36780683466685 H 0.0 **** 0.06
1376 C 14.643803853628445 103.58881625584388 54.79606466251016 C 0.0 **** -0.24
1377 H 13.727412158723048 103.61779382047257 54.207001619012715 H 0.0 **** 0.06
1378 H 15.135805935294457 104.56068664930388 54.74961410192901 H 0.0 **** 0.06
1379 H 15.309651054947967 102.8244299551652 54.39567633609144 H 0.0 **** 0.06
1380 H 14.401159756482144 103.35342742359249 55.83263096733435 H 0.0 **** 0.06
1381 C 33.54321861378344 74.41240621960448 5.0923541007944415 C 0.0 **** -0.24
1382 H 33.32675295753896 73.34836063862622 5.003707087137187 H 0.0 **** 0.06
1383 H 33.240358214909136 74.92245465386293 4.177207681444369 H 0.0 **** 0.06
1384 H 34.61286296571002 74.55293310988523 5.248677152214066 H 0.0 **** 0.06
1385 H 32.99465114323158 74.82629436500163 5.938497746678495 H 0.0 **** 0.06
1386 C 57.42199767656268 15.787007918181946 46.084553462120496 C 0.0 **** -0.24
1387 H 56.54792226562938 16.28421588072273 45.66483199026594 H 0.0 **** 0.06
1388 H 57.70187124322166 14.945974375095979 45.44995822757167 H 0.0 **** 0.06
1389 H 57.187736344622465 15.424810813702422 47.085800005503735 H 0.0 **** 0.06
1390 H 58.25060178218632 16.49283198759583 46.13859354318804 H 0.0 **** 0.06
1391 C 78.33513960448903 7.233444646346356 73.70728344354859 C 0.0 **** -0.24
1392 H 77.30243846354745 6.8885696366942 73.65373606444632 H 0.0 **** 0.06
1393 H 78.5498594934362 7.582469079168646 74.71769033370936 H 0.0 **** 0.06
1394 H 78.48293316596789 8.049730159663 73.00022492020844 H 0.0 **** 0.06
1395 H 79.00536042147257 6.410839558357338 73.45694431413835 H 0.0 **** 0.06
1396 C 33.65058880928041 105.3748684822898 35.143350412508994 C 0.0 **** -0.24
1397 H 34.33359978610119 104.81225979854725 34.50727716033538 H 0.0 **** 0.06
1398 H 34.03107270761211 106.38725802843709 35.2789754151965 H 0.0 **** 0.06
1399 H 33.56963108592345 104.88334685266449 36.113116410634234 H 0.0 **** 0.06
1400 H 32.66735819622187 105.41590818059035 34.67419898922367 H 0.0 **** 0.06
1401 C 110.43518086781407 24.85563850893577 27.295455855181018 C 0.0 **** -0.24
1402 H 111.12615949500103 24.155337325910182 27.766512757615317 H 0.0 **** 0.06
1403 H 110.93194704390166 25.816657308691944 27.155591439573215 H 0.0 **** 0.06
1404 H 109.56072363519824 24.986153753450367 27.93192108239964 H 0.0 **** 0.06
1405 H 110.12460451206937 24.461887096517614 26.32724413972491 H 0.0 **** 0.06
1406 C 1.6737638346762083 99.95742559441135 97.65636665715255 C 0.0 **** -0.24
1407 H 2.0653111964314377 100.83890044909577 98.16370722885466 H 0.0 **** 0.06
1408 H 2.0067657904075418 99.06042069939741 98.17878762163994 H 0.0 **** 0.06
1409 H 2.0396918728107494 99.9367177483364 96.6293984820321 H 0.0 **** 0.06
1410 H 0.5842455915618956 99.99405390485731 97.65261008643725 H 0.0 **** 0.06
1411 C 2.81165188204516 72.21848676275808 79.91450616330836 C 0.0 **** -0.24
1412 H 1.8991890299289818 71.66891628440241 79.68171741783578 H 0.0 **** 0.06
1413 H 3.564934421590916 71.52743897935265 80.29311561871567 H 0.0 **** 0.06
1414 H 2.5971191532150435 72.97424275857492 80.67086941854308 H 0.0 **** 0.06
1415 H 3.1832472032282233 72.70401475362752 79.01205326916846 H 0.0 **** 0.06
1416 C 20.82020424317676 80.25647768502444 104.40575599655895 C 0.0 **** -0.24
1417 H 21.212554873003285 81.24962316456225 104.62170671237725 H 0.0 **** 0.06
1418 H 19.834621104570118 80.34650722967956 103.94918805935654 H 0.0 **** 0.06
1419 H 20.740744897947422 79.68785511748831 105.33296276046715 H 0.0 **** 0.06
1420 H 21.492770249864435 79.7412888386591 103.7204231445876 H 0.0 **** 0.06
1421 C 25.715856445547132 51.04951850038805 1.5807421976782337 C 0.0 **** -0.24
1422 H 26.43913938751689 51.35451784354768 2.3371844834119884 H 0.0 **** 0.06
1423 H 24.771901278497495 50.79421304907146 2.0631170953453477 H 0.0 **** 0.06
1424 H 26.09706672994676 50.180509734401994 1.045222661084523 H 0.0 **** 0.06
1425 H 25.557725004515362 51.86815877214269 0.8791039340489419 H 0.0 **** 0.06
1426 C 6.5178642716754425 35.975778337489146 65.61320383378359 C 0.0 **** -0.24
1427 H 6.122576982648534 36.693536771694085 64.89452065420471 H 0.0 **** 0.06
1428 H 6.98881713129024 36.51001804696733 66.43997054925859 H 0.0 **** 0.06
1429 H 7.255330400863784 35.340127622097725 65.12421962814398 H 0.0 **** 0.06
1430 H 5.704188561412147 35.358885574428086 65.99620376862873 H 0.0 **** 0.06
1431 C 52.33516549675664 77.28612794128816 76.14038825387651 C 0.0 **** -0.24
1432 H 51.69184449358398 77.57175867333974 75.30781457553017 H 0.0 **** 0.06
1433 H 53.36883311001445 77.22552494228174 75.79591269674863 H 0.0 **** 0.06
1434 H 52.02220984309116 76.31518208343168 76.52423278916503 H 0.0 **** 0.06
1435 H 52.25850798947458 78.03286496325927 76.93080155435926 H 0.0 **** 0.06
1436 C 101.76133858670448 27.478822270255364 9.836431556790217 C 0.0 **** -0.24
1437 H 101.96599951329085 26.476586935575426 9.459837644246647 H 0.0 **** 0.06
1438 H 100.88246447802135 27.882398486007276 9.333572457363687 H 0.0 **** 0.06
1439 H 102.619607353491 28.121706514355367 9.642505602408278 H 0.0 **** 0.06
1440 H 101.57677781270615 27.432447045697756 10.909461083902471 H 0.0 **** 0.06
1441 C 19.036882409276075 100.86610206267764 84.16966654348762 C 0.0 **** -0.24
1442 H 18.034002471366463 101.28849400273805 84.24507012228348 H 0.0 **** 0.06
1443 H 19.492508594315836 100.83462765282309 85.15985840431188 H 0.0 **** 0.06
1444 H 19.643060403807752 101.48711893289457 83.51016672151417 H 0.0 **** 0.06
1445 H 18.97579400304899 99.85604750747301 83.76445581350903 H 0.0 **** 0.06
1446 C 28.343361374105143 86.46941237461579 81.50784420892259 C 0.0 **** -0.24
1447 H 27.695444144609127 87.02789017941049 82.18229173111749 H 0.0 **** 0.06
1448 H 28.012924777317608 86.6208616935117 80.47894352139612 H 0.0 **** 0.06
1449 H 28.294181604864377 85.40796790577343 81.75233298088567 H 0.0 **** 0.06
1450 H 29.369667867941928 86.82009817693427 81.61539962736686 H 0.0 **** 0.06
1451 C 77.16707628989923 74.9785844953588 83.26896337825269 C 0.0 **** -0.24
1452 H 76.28949401790672 75.00108817873269 83.91464413889491 H 0.0 **** 0.06
1453 H 77.92141019174139 74.32240462391059 83.70355524504515 H 0.0 **** 0.06
1454 H 77.57381117798926 75.98557351831676 83.17314272626726 H 0.0 **** 0.06
1455 H 76.88427885580025 74.6058729855892 82.28491590477546 H 0.0 **** 0.06
1456 C 33.54179722309037 53.27026346000136 58.08968094108724 C 0.0 **** -0.24
1457 H 34.36973922635923 52.84961340635044 57.519079241775046 H 0.0 **** 0.06
1458 H 32.60105772962232 53.04115443265604 57.589030372006455 H 0.0 **** 0.06
1459 H 33.66174791470627 54.35149461126457 58.15987905138167 H 0.0 **** 0.06
1460 H 33.53528494413178 52.839185289768295 59.09139397052597 H 0.0 **** 0.06
1461 C 58.12818508841082 20.973935138438932 18.145908753649 C 0.0 **** -0.24
1462 H 58.0096887706427 20.248447791248736 17.3408227424934 H 0.0 **** 0.06
1463 H 58.86368582500734 21.723350506150027 17.853503206428687 H 0.0 **** 0.06
1464 H 58.46632076901744 20.463362810181252 19.047828323132954 H 0.0 **** 0.06
1465 H 57.17162868611712 21.45914804393462 18.340508412749074 H 0.0 **** 0.06
1466 C 102.43258337760278 101.04680127790297 7.834306692736391 C 0.0 **** -0.24
1467 H 101.53171259220599 100.44382861390716 7.72007214952346 H 0.0 **** 0.06
1468 H 102.53057944247061 101.36046152086554 8.873927195585054 H 0.0 **** 0.06
1469 H 102.36359560772894 101.92642030020563 7.19325454035183 H 0.0 **** 0.06
1470 H 103.30299760844792 100.456616709138 7.54859889369834 H 0.0 **** 0.06
1471 C 46.084930410691015 99.14978176836297 20.954898601318234 C 0.0 **** -0.24
1472 H 47.10855098368552 99.5230212546528 20.92017179942735 H 0.0 **** 0.06
1473 H 46.09182365962852 98.06261437080565 20.882481611193953 H 0.0 **** 0.06
1474 H 45.5175397805414 99.56648392090963 20.122397581965743 H 0.0 **** 0.06
1475 H 45.621928232111486 99.44903968214061 21.895905764804752 H 0.0 **** 0.06
1476 C 90.71878498450802 89.72712967619444 1.926999289812585 C 0.0 **** -0.24
1477 H 90.8741158426879 88.93834009915241 2.6627166499454518 H 0.0 **** 0.06
1478 H 90.29529901598221 89.29849004150734 1.0183582936556377 H 0.0 **** 0.06
1479 H 91.6734201061742 90.20117084783203 1.6952438866905766 H 0.0 **** 0.06
1480 H 90.03264430268896 90.47188317224692 2.3318214584921293 H 0.0 **** 0.06
1481 C 110.03394585741809 98.16142307022758 64.69450744879714 C 0.0 **** -0.24
1482 H 110.72322027335565 98.52840103055217 65.45521350583198 H 0.0 **** 0.06
1483 H 109.98274070882498 98.8780335041966 63.875479248420845 H 0.0 **** 0.06
1484 H 109.04275963052507 98.03641871032427 65.13146231010234 H 0.0 **** 0.06
1485 H 110.38777310945467 97.20209942487688 64.31684867167525 H 0.0 **** 0.06
1486 C 40.64112572277074 91.61096019520693 54.158106831586906 C 0.0 **** -0.24
1487 H 40.95222734983929 92.05757227997773 53.212564518691636 H 0.0 **** 0.06
1488 H 40.571472338473484 92.38673252141888 54.920172052742146 H 0.0 **** 0.06
1489 H 41.37336709813255 90.86420394375978 54.464706549461084 H 0.0 **** 0.06
1490 H 39.66800661445066 91.13648918650449 54.031769221186664 H 0.0 **** 0.06
1491 C 68.9635023172313 101.72431079679875 19.63779060791049 C 0.0 **** -0.24
1492 H 69.26402059672411 102.36185691513094 20.46863619591221 H 0.0 **** 0.06
1493 H 68.85436934272182 100.69812424521064 19.989533293155375 H 0.0 **** 0.06
1494 H 69.72263250396259 101.76336905391534 18.856626387104626 H 0.0 **** 0.06
1495 H 68.01226126291539 102.07422070625367 19.237535422588053 H 0.0 **** 0.06
1496 C 38.65411389075846 71.70664738766334 59.84964126377977 C 0.0 **** -0.24
1497 H 38.347043041896825 71.06718624576138 60.67762297037423 H 0.0 **** 0.06
1498 H 37.956607029771945 72.54024555246764 59.75697462937674 H 0.0 **** 0.06
1499 H 38.65533394579756 71.12901460419681 58.9258926216083 H 0.0 **** 0.06
1500 H 39.656281069707035 72.09090271599905 60.04007636459666 H 0.0 **** 0.06
1501 C 110.47910452898287 34.602006857181436 12.929930710214016 C 0.0 **** -0.24
1502 H 110.77636411303924 35.538975204962355 12.45876641287747 H 0.0 **** 0.06
1503 H 111.26051702548003 33.856221462118526 12.780333113898802 H 0.0 **** 0.06
1504 H 109.54926024345535 34.249782733579394 12.482935719164377 H 0.0 **** 0.06
1505 H 110.33099504062307 34.764033891816695 13.99840328252333 H 0.0 **** 0.06
1506 C 34.62647776135344 108.52673198049166 6.149957681320572 C 0.0 **** -0.24
1507 H 35.6096975598262 108.78257618430932 5.755802541111862 H 0.0 **** 0.06
1508 H 33.91461172305816 109.30844987849676 5.886267396416699 H 0.0 **** 0.06
1509 H 34.681966218111626 108.43672137447109 7.235176503900817 H 0.0 **** 0.06
1510 H 34.30074332945469 107.57791949093175 5.7230119027103115 H 0.0 **** 0.06
1511 C 63.37660888193915 66.96926399852535 8.554707011250924 C 0.0 **** -0.24
1512 H 62.60717607871766 67.63318575785283 8.160999281283772 H 0.0 **** 0.06
1513 H 64.34843040205993 67.45880094589165 8.48549515712105 H 0.0 **** 0.06
1514 H 63.3911334778104 66.04608129964112 7.975229245596974 H 0.0 **** 0.06
1515 H 63.15879444132963 66.73985912450797 9.59829987150627 H 0.0 **** 0.06
1516 C 46.64817348838591 72.97382540981911 33.56024455848425 C 0.0 **** -0.24
1517 H 47.495639894230514 73.63484642697853 33.73826864163923 H 0.0 **** 0.06
1518 H 45.87759889511139 73.5122439463812 33.00752848184208 H 0.0 **** 0.06
1519 H 46.24290838177717 72.63787919647712 34.51491418016503 H 0.0 **** 0.06
1520 H 46.975853172481116 72.11077093806432 32.980838200676885 H 0.0 **** 0.06
1521 C 62.639639149458745 14.411209571540354 0.220566005999018 C 0.0 **** -0.24
1522 H 62.26751906423485 13.471920441408258 -0.18688857589845043 H 0.0 **** 0.06
1523 H 63.52737423107382 14.218885053929966 0.8239833495410664 H 0.0 **** 0.06
1524 H 61.8700487671271 14.86824106810937 0.8420493528899016 H 0.0 **** 0.06
1525 H 62.89491251382749 15.086274158395128 -0.5971675192513288 H 0.0 **** 0.06
1526 C 26.304600175271133 9.489232969914035 34.76702092899354 C 0.0 **** -0.24
1527 H 27.00734298248034 8.84283114270603 34.24125771532727 H 0.0 **** 0.06
1528 H 26.811907595934827 10.40575469157184 35.071645206321044 H 0.0 **** 0.06
1529 H 25.925699413608925 8.972881405653164 35.64952988200373 H 0.0 **** 0.06
1530 H 25.473928154017784 9.73676493834363 34.1053656574002 H 0.0 **** 0.06
1531 C 76.04576889405735 43.822184678064815 80.0211214833966 C 0.0 **** -0.24
1532 H 75.91139124641472 42.80857442190444 80.3963847734502 H 0.0 **** 0.06
1533 H 75.08280477060077 44.33213102886316 80.00054160862317 H 0.0 **** 0.06
1534 H 76.45908397892254 43.785967920490464 79.0138118715683 H 0.0 **** 0.06
1535 H 76.72970734741591 44.36368841724408 80.67528328726945 H 0.0 **** 0.06
1536 C 21.71239118464092 4.835227626256891 22.98744530196032 C 0.0 **** -0.24
1537 H 21.481730244920545 5.212565208092711 23.983718665214184 H 0.0 **** 0.06
1538 H 21.53091165856989 5.61853863094926 22.251855227087646 H 0.0 **** 0.06
1539 H 21.077707345348635 3.976122979846174 22.76879628626412 H 0.0 **** 0.06
1540 H 22.759142474589293 4.533772250158348 22.947644205621145 H 0.0 **** 0.06
1541 C 107.91385872930968 44.211077849612714 54.20314439389125 C 0.0 **** -0.24
1542 H 108.33087595692149 43.759611390684455 53.30277923785121 H 0.0 **** 0.06
1543 H 108.46457087722223 45.12203233500155 54.440923421181935 H 0.0 **** 0.06
1544 H 107.997137966302 43.510216799888696 55.03341426486173 H 0.0 **** 0.06
1545 H 106.86476792010691 44.452997706028356 54.03530831958989 H 0.0 **** 0.06
1546 C 28.026781244090017 45.531249288125395 15.146729916526041 C 0.0 **** -0.24
1547 H 29.034259461708245 45.11798062506378 15.111710907353512 H 0.0 **** 0.06
1548 H 27.994848650295097 46.35245946918454 15.862944195319244 H 0.0 **** 0.06
1549 H 27.3259050024908 44.7547391340228 15.453782395975495 H 0.0 **** 0.06
1550 H 27.749909503367036 45.899625590689425 14.158818138047664 H 0.0 **** 0.06
1551 C 110.82208482001116 67.0882603472253 3.0824756863187446 C 0.0 **** -0.24
1552 H 110.94025043751041 66.16624066350307 3.6516156660137806 H 0.0 **** 0.06
1553 H 110.63685370088604 67.91641908149666 3.7666600791163756 H 0.0 **** 0.06
1554 H 109.97874705068432 66.98587477549977 2.3984614997456415 H 0.0 **** 0.06
1555 H 111.73080974616099 67.2818653875502 2.5120671877443783 H 0.0 **** 0.06
1556 C 81.72309031016056 17.79137685865024 87.86831198175165 C 0.0 **** -0.24
1557 H 82.05153825521711 16.77401707435665 87.65818417375407 H 0.0 **** 0.06
1558 H 81.38578785098139 18.26165352203691 86.94378414429114 H 0.0 **** 0.06
1559 H 82.55299465143588 18.361723337901452 88.28393361631274 H 0.0 **** 0.06
1560 H 80.90260106550153 17.768061229650243 88.58518190706037 H 0.0 **** 0.06
1561 C 96.59748683072208 61.981285617083074 92.63460340597045 C 0.0 **** -0.24
1562 H 96.26853024727585 62.2651159490357 91.63428210427311 H 0.0 **** 0.06
1563 H 96.05892922635927 61.08915957665732 92.95407728791085 H 0.0 **** 0.06
1564 H 96.39469699622735 62.79737851810614 93.32803644930314 H 0.0 **** 0.06
1565 H 97.66771083102738 61.77458990531534 92.61983131532851 H 0.0 **** 0.06
1566 C 101.80514354222223 13.51529980097412 20.40955329747129 C 0.0 **** -0.24
1567 H 102.74362341335132 13.126082331164298 20.80419873110921 H 0.0 **** 0.06
1568 H 100.9703273658989 12.995136149691703 20.880116258619623 H 0.0 **** 0.06
1569 H 101.77087347757521 13.355994759196847 19.33179998700139 H 0.0 **** 0.06
1570 H 101.73640395103416 14.581252588190097 20.62177994788837 H 0.0 **** 0.06
1571 C 38.37555506903456 11.861321620147123 65.19236814834272 C 0.0 **** -0.24
1572 H 38.19203774265881 10.977074447398365 64.58364985553607 H 0.0 **** 0.06
1573 H 37.57340434957399 11.972607941930676 65.92269092965421 H 0.0 **** 0.06
1574 H 38.40957727985594 12.742811003168015 64.55297184433144 H 0.0 **** 0.06
1575 H 39.32778307212121 11.753143103177592 65.71308212439814 H 0.0 **** 0.06
1576 C 7.4390460111806505 22.56383385124957 38.12344270320648 C 0.0 **** -0.24
1577 H 6.515506506997042 22.735238373839252 38.67528592545443 H 0.0 **** 0.06
1578 H 7.685807008411103 23.45268553802464 37.54237261664855 H 0.0 **** 0.06
1579 H 7.309355366268633 21.714718316260758 37.45175533485667 H 0.0 **** 0.06
1580 H 8.246282508140524 22.351575527314083 38.82475960387171 H 0.0 **** 0.06
1581 C 101.85708594265506 48.37100031275003 12.028160182171177 C 0.0 **** -0.24
1582 H 102.33465368518941 48.17877489704918 12.98852320375562 H 0.0 **** 0.06
1583 H 101.42981976845059 49.37358163042023 12.028335338540103 H 0.0 **** 0.06
1584 H 101.06595209336187 47.63840460469743 11.863185703952752 H 0.0 **** 0.06
1585 H 102.5968930737856 48.291016742648 11.232673734143475 H 0.0 **** 0.06
1586 C 24.23263708509836 46.37825113057421 81.60969057018107 C 0.0 **** -0.24
1587 H 24.49278906280324 46.11288344209872 80.58421324198247 H 0.0 **** 0.06
1588 H 25.138374316213287 46.63908144649493 82.1572865470261 H 0.0 **** 0.06
1589 H 23.745181335601274 45.53134568443693 82.0914132392061 H 0.0 **** 0.06
1590 H 23.55458826413465 47.23185095884839 81.60182427812177 H 0.0 **** 0.06
1591 C 109.3336836230579 54.60731810511507 64.21770572745783 C 0.0 **** -0.24
1592 H 109.3270294759235 53.75430852208305 63.53934292448656 H 0.0 **** 0.06
1593 H 108.61460223327299 54.43914111126318 65.01931858754372 H 0.0 **** 0.06
1594 H 109.06312822690012 55.50938302032765 63.6695037891493 H 0.0 **** 0.06
1595 H 110.33124106108838 54.72596137986619 64.64224869336425 H 0.0 **** 0.06
1596 C 55.16863867354482 91.05589231144256 100.639636038613 C 0.0 **** -0.24
1597 H 55.93013974499701 90.60578790402491 100.00321963225687 H 0.0 **** 0.06
1598 H 55.64039350360878 91.74703424791403 101.33876906008332 H 0.0 **** 0.06
1599 H 54.65187223995258 90.27262760627252 101.1957193694704 H 0.0 **** 0.06
1600 H 54.45114638822133 91.59629301434535 100.02164763700283 H 0.0 **** 0.06
1601 C 79.36634229242101 103.79875702692645 47.114769082422185 C 0.0 **** -0.24
1602 H 79.57606734277601 103.64156310193356 48.17294214066118 H 0.0 **** 0.06
1603 H 78.45534571290428 104.38740094532665 47.00884326968173 H 0.0 **** 0.06
1604 H 79.2366729959134 102.83491039123173 46.62333828487229 H 0.0 **** 0.06
1605 H 80.19954496971744 104.33122628787619 46.65489021402334 H 0.0 **** 0.06
1606 C 94.30981741872014 2.3849444338815147 56.192334678792434 C 0.0 **** -0.24
1607 H 93.63752569018293 3.1992606138256576 55.92378547004688 H 0.0 **** 0.06
1608 H 94.26144755019222 1.6078825621340371 55.428219483075026 H 0.0 **** 0.06
1609 H 94.00999400632695 1.9684053107727237 57.15378659974769 H 0.0 **** 0.06
1610 H 95.32935859567417 2.763551745765625 56.26191916630512 H 0.0 **** 0.06
1611 C 16.127561928141915 80.66307324889245 98.41314145862185 C 0.0 **** -0.24
1612 H 15.580017262256263 81.10350211747262 99.24574336071787 H 0.0 **** 0.06
1613 H 17.15790138703683 80.47532186527005 98.71563073381434 H 0.0 **** 0.06
1614 H 16.115512769265322 81.35122131113785 97.56713622216681 H 0.0 **** 0.06
1615 H 15.655832506957623 79.72367243899588 98.12400614697813 H 0.0 **** 0.06
1616 C 84.42369749682621 58.36328825800883 83.01181085579611 C 0.0 **** -0.24
1617 H 85.49803504790893 58.17855596143366 82.98914868831889 H 0.0 **** 0.06
1618 H 84.0551183630561 58.23390649949245 84.02938567456476 H 0.0 **** 0.06
1619 H 83.91984578243964 57.6587189009071 82.35012724326731 H 0.0 **** 0.06
1620 H 84.22378534696685 59.38185715750748 82.67848776376422 H 0.0 **** 0.06
1621 C 68.6367367292867 80.70246102377848 97.4195675984185 C 0.0 **** -0.24
1622 H 67.97649589823024 80.96706278455483 98.24521198964337 H 0.0 **** 0.06
1623 H 69.6276220176436 80.46621241576293 97.80699198501532 H 0.0 **** 0.06
1624 H 68.70741870542672 81.54258855434728 96.72803989211954 H 0.0 **** 0.06
1625 H 68.23382339628832 79.83471425007528 96.89705527638051 H 0.0 **** 0.06
1626 C 24.635671892936767 65.07019837692995 53.647948518307224 C 0.0 **** -0.24
1627 H 24.644296195825905 65.84414317794297 54.414816010326525 H 0.0 **** 0.06
1628 H 24.618799925549826 64.08952381805905 54.12258673544719 H 0.0 **** 0.06
1629 H 25.530546819314107 65.16059924913954 53.03186710996186 H 0.0 **** 0.06
1630 H 23.750190547146392 65.18765809208635 53.02316316332233 H 0.0 **** 0.06
1631 C 91.91874038116312 28.829470383493515 19.063376853777903 C 0.0 **** -0.24
1632 H 92.34751372831946 27.91542951667617 18.650935938230578 H 0.0 **** 0.06
1633 H 91.475189532975 29.41685908842271 18.259947426943015 H 0.0 **** 0.06
1634 H 92.7016208328879 29.40976768661517 19.5509975422254 H 0.0 **** 0.06
1635 H 91.1499706670778 28.571759569321813 19.79305012473009 H 0.0 **** 0.06
1636 C 20.809664575472965 96.03732621942262 8.969265187394173 C 0.0 **** -0.24
1637 H 20.789796619044267 94.96231271307458 8.795389180665863 H 0.0 **** 0.06
1638 H 20.851184184453444 96.55935584952108 8.013170562430544 H 0.0 **** 0.06
1639 H 21.686902343745118 96.2930209972189 9.562864184396796 H 0.0 **** 0.06
1640 H 19.907884891641032 96.33436200906209 9.50640014828245 H 0.0 **** 0.06
1641 C 99.00783869602493 28.632108115873685 68.59427509669372 C 0.0 **** -0.24
1642 H 99.97611138462418 28.975106366074364 68.22784638412183 H 0.0 **** 0.06
1643 H 98.7500203114851 29.176510615377502 69.50325275334728 H 0.0 **** 0.06
1644 H 99.05888584347854 27.565245084487238 68.8110657275091 H 0.0 **** 0.06
1645 H 98.24724926990748 28.812865522621884 67.83423479961621 H 0.0 **** 0.06
1646 C 69.9783496045059 81.32920273992963 2.690432573977459 C 0.0 **** -0.24
1647 H 69.52397379952438 81.89735578976114 3.5009326506106007 H 0.0 **** 0.06
1648 H 69.54443325708206 80.32933998061725 2.6598737780720647 H 0.0 **** 0.06
1649 H 71.05336496512452 81.25398176793021 2.8565004860517753 H 0.0 **** 0.06
1650 H 69.7916463914907 81.83611595028643 1.7430093813495802 H 0.0 **** 0.06
1651 C 47.049450643852616 10.00262036603442 30.04191706399402 C 0.0 **** -0.24
1652 H 46.739074497078 10.728012746104582 29.28903105821729 H 0.0 **** 0.06
1653 H 48.009310253300676 9.571357224256445 29.75685849401205 H 0.0 **** 0.06
1654 H 46.30237875749344 9.211016146728966 30.112911242651847 H 0.0 **** 0.06
1655 H 47.14500131846505 10.499480338276697 31.006753272025264 H 0.0 **** 0.06
1656 C 30.6435338846386 62.02856642823235 96.89670627137667 C 0.0 **** -0.24
1657 H 30.85386640126123 62.751310435198604 97.68615364217999 H 0.0 **** 0.06
1658 H 29.64353595665628 62.20546119012471 96.50011310108556 H 0.0 **** 0.06
1659 H 30.69958530376323 61.01941055073877 97.30388479041386 H 0.0 **** 0.06
1660 H 31.37612185728466 62.13955856680741 96.09800464981953 H 0.0 **** 0.06
1661 C 70.71843137510184 23.885861261843445 57.63555417697215 C 0.0 **** -0.24
1662 H 70.093300647925 22.99880325521724 57.73918049359871 H 0.0 **** 0.06
1663 H 70.37981936552522 24.470983273657396 56.781046233674154 H 0.0 **** 0.06
1664 H 71.75425112699509 23.58347727625511 57.48229920732341 H 0.0 **** 0.06
1665 H 70.64639450716669 24.48778020158744 58.54148906260821 H 0.0 **** 0.06
1666 C 107.43107795373942 99.5058986787609 27.65068675376571 C 0.0 **** -0.24
1667 H 107.83628545126271 98.49918674920244 27.542692457296567 H 0.0 **** 0.06
1668 H 107.09844513321991 99.65481545427454 28.678169578221087 H 0.0 **** 0.06
1669 H 106.58664755492225 99.63201514547059 26.97234928553715 H 0.0 **** 0.06
1670 H 108.20346528743028 100.23555745168454 27.40873720420204 H 0.0 **** 0.06
1671 C 31.860310434507127 97.71118937343509 33.842992263507824 C 0.0 **** -0.24
1672 H 32.6384540380134 97.61410371200948 34.60081526069999 H 0.0 **** 0.06
1673 H 32.10446321290209 98.53756767681875 33.1751194645629 H 0.0 **** 0.06
1674 H 30.90371614874826 97.90549496673897 34.3272756549231 H 0.0 **** 0.06
1675 H 31.796088947685654 96.78669233658567 33.26876880190524 H 0.0 **** 0.06
1676 C 66.52251705710682 64.03946628993414 19.65750207225696 C 0.0 **** -0.24
1677 H 67.11439356702667 63.22476732978279 19.238817709312457 H 0.0 **** 0.06
1678 H 66.15316126558147 64.67232091036952 18.849984204802738 H 0.0 **** 0.06
1679 H 67.14414105772931 64.6321147203792 20.328342701667253 H 0.0 **** 0.06
1680 H 65.67976303783752 63.628382582391055 20.211869731857874 H 0.0 **** 0.06
1681 C 64.07600232300393 4.48768650091732 42.09033405499407 C 0.0 **** -0.24
1682 H 64.73635246188493 4.040708651033199 41.34678495879456 H 0.0 **** 0.06
1683 H 64.6352467956068 5.212472080059584 42.68299692460348 H 0.0 **** 0.06
1684 H 63.68380404908254 3.7085471082331054 42.7437405426935 H 0.0 **** 0.06
1685 H 63.250585694009175 4.990367496966186 41.58631031203264 H 0.0 **** 0.06
1686 C 67.76446718828967 12.999928166939355 21.390129752706912 C 0.0 **** -0.24
1687 H 67.89747353948792 14.066622661811778 21.57290813990363 H 0.0 **** 0.06
1688 H 67.48617848629947 12.504176612514527 22.320325724171852 H 0.0 **** 0.06
1689 H 68.69784090472706 12.576964250128981 21.017245301609734 H 0.0 **** 0.06
1690 H 66.97779408613631 12.853813271922377 20.650756681816347 H 0.0 **** 0.06
1691 C 8.767378489358967 9.31533075508439 108.1912103357945 C 0.0 **** -0.24
1692 H 9.021729218509382 8.998157174058719 107.18012461639081 H 0.0 **** 0.06
1693 H 9.289446653435379 10.243614667429725 108.42190604655411 H 0.0 **** 0.06
1694 H 9.066135754688489 8.543240081742155 108.90061984196535 H 0.0 **** 0.06
1695 H 7.69099524119 9.475675794174947 108.26181744115097 H 0.0 **** 0.06
1696 C 44.751933271526525 39.06671945500281 12.796733383792116 C 0.0 **** -0.24
1697 H 45.13483686962667 38.04730437898252 12.73875473695432 H 0.0 **** 0.06
1698 H 43.72465760128125 39.048241903902124 13.159877954807769 H 0.0 **** 0.06
1699 H 44.780856601172786 39.5227638884009 11.80709675747977 H 0.0 **** 0.06
1700 H 45.3690198801342 39.64777694204935 13.482844963504931 H 0.0 **** 0.06
1701 C 28.574409194137786 41.223777746278664 98.74437346797116 C 0.0 **** -0.24
1702 H 28.968567176045383 40.21217793294942 98.65557618088701 H 0.0 **** 0.06
1703 H 28.396840373200178 41.45405185284876 99.79528969948691 H 0.0 **** 0.06
1704 H 27.63756809714971 41.29865677846714 98.19139365848893 H 0.0 **** 0.06
1705 H 29.295109890525907 41.931261848801554 98.3339218894206 H 0.0 **** 0.06
1706 C 23.88151102172293 9.920937409212968 11.609831285328756 C 0.0 **** -0.24
1707 H 23.000283297453166 9.286468022076235 11.710702917557871 H 0.0 **** 0.06
1708 H 23.619681874323362 10.948508876134895 11.860909120505646 H 0.0 **** 0.06
1709 H 24.24388891022943 9.878534039566546 10.583327565045742 H 0.0 **** 0.06
1710 H 24.660808650356586 9.568685031327732 12.28520908394534 H 0.0 **** 0.06
1711 C 83.99847763381038 5.36011133427931 64.98138523916623 C 0.0 **** -0.24
1712 H 84.56464364048355 6.046998469947113 64.35165602080099 H 0.0 **** 0.06
1713 H 84.07112972515985 4.351286922951047 64.5740220656823 H 0.0 **** 0.06
1714 H 82.95256260681501 5.667767072403649 65.00576739042423 H 0.0 **** 0.06
1715 H 84.40595538092158 5.374180794032739 65.99190225109928 H 0.0 **** 0.06
1716 C 20.202424336002707 89.49956441195786 7.950318621319923 C 0.0 **** -0.24
1717 H 19.176725755337657 89.1413077756952 7.861524784862752 H 0.0 **** 0.06
1718 H 20.24945497597531 90.28502661596428 8.705502072710772 H 0.0 **** 0.06
1719 H 20.531654606931312 89.89771974421473 6.990658014578855 H 0.0 **** 0.06
1720 H 20.851862005766776 88.67420351195724 8.243589613127142 H 0.0 **** 0.06
1721 C 28.147636394226225 75.85313412758273 27.0051076002257 C 0.0 **** -0.24
1722 H 28.626092178642793 75.85846514886205 27.98527516421754 H 0.0 **** 0.06
1723 H 27.09254076654245 76.10699881540303 27.115247302818943 H 0.0 **** 0.06
1724 H 28.23892889085414 74.86169859749097 26.561769142950197 H 0.0 **** 0.06
1725 H 28.632501982995443 76.585913908315 26.361050286293136 H 0.0 **** 0.06
1726 C 7.081623372246312 22.22666572398137 98.03375454462245 C 0.0 **** -0.24
1727 H 6.6819518188663185 23.11356987442977 98.52630855335171 H 0.0 **** 0.06
1728 H 7.994727840887329 22.49016325411381 97.49873297503132 H 0.0 **** 0.06
1729 H 6.345490820693337 21.840110081627245 97.32935600467215 H 0.0 **** 0.06
1730 H 7.304978702571198 21.46630112936367 98.78129166655387 H 0.0 **** 0.06
1731 C 78.92785254883287 36.99721049113383 85.8294368220599 C 0.0 **** -0.24
1732 H 79.81680844744737 36.94537493338838 85.2011373741035 H 0.0 **** 0.06
1733 H 78.8152755871286 38.01142655388914 86.21493523806282 H 0.0 **** 0.06
1734 H 79.03128199049006 36.301246601323385 86.66211104521602 H 0.0 **** 0.06
1735 H 78.05097439732931 36.73257529511709 85.2400544652279 H 0.0 **** 0.06
1736 C 32.49079850686228 17.459413482475917 20.37164632604049 C 0.0 **** -0.24
1737 H 32.45579219670001 18.298107846248428 19.676906796650997 H 0.0 **** 0.06
1738 H 31.626796832810506 17.501136367401745 21.03542194841441 H 0.0 **** 0.06
1739 H 33.40530909314317 17.516552364678372 20.962478194151174 H 0.0 **** 0.06
1740 H 32.47622039858366 16.52341976656356 19.81308390009491 H 0.0 **** 0.06
1741 C 61.981504482118794 46.411014564660746 59.7738161952045 C 0.0 **** -0.24
1742 H 61.553554560930735 47.39202210329978 59.977049414505615 H 0.0 **** 0.06
1743 H 61.3266165020969 45.63796962539786 60.17744480191557 H 0.0 **** 0.06
1744 H 62.962421389843826 46.33867430159509 60.24287227414479 H 0.0 **** 0.06
1745 H 62.083147708317995 46.27550041314939 58.69694372665444 H 0.0 **** 0.06
1746 C 84.38360688855983 58.36047762299938 13.602038055888272 C 0.0 **** -0.24
1747 H 84.69207214322803 59.01082391347373 12.784492620194683 H 0.0 **** 0.06
1748 H 84.91363315218605 57.41020597803839 13.530088465016235 H 0.0 **** 0.06
1749 H 83.3095723669727 58.18388830645958 13.539942838660977 H 0.0 **** 0.06
1750 H 84.61912169839145 58.836147723718966 14.554762322026903 H 0.0 **** 0.06
1751 C 62.70263019010332 70.22447147295682 57.41040338317389 C 0.0 **** -0.24
1752 H 63.23274954840802 69.72642632529943 56.59888246202439 H 0.0 **** 0.06
1753 H 61.68897899741761 69.82869507683921 57.479062488862404 H 0.0 **** 0.06
1754 H 62.66123770342395 71.29629796600221 57.212981416473674 H 0.0 **** 0.06
1755 H 63.22759997646959 70.04807434030874 58.349498443448525 H 0.0 **** 0.06
1756 C 28.99207078360925 37.731492842372575 84.04096568705991 C 0.0 **** -0.24
1757 H 28.8843765592502 38.14839700980795 85.04253376926074 H 0.0 **** 0.06
1758 H 28.076553303210076 37.90529741582685 83.47484071491051 H 0.0 **** 0.06
1759 H 29.178504453050863 36.659773918134135 84.1115190490151 H 0.0 **** 0.06
1760 H 29.82886600554272 38.21410405241622 83.53616780558039 H 0.0 **** 0.06
1761 C 43.512751299681454 41.51443704907376 67.0018617019573 C 0.0 **** -0.24
1762 H 44.253943235097566 40.78115724684005 67.31730409159172 H 0.0 **** 0.06
1763 H 43.151265176593846 42.0639990479838 67.87086464303081 H 0.0 **** 0.06
1764 H 42.67840998142928 41.003877765171865 66.5216737412888 H 0.0 **** 0.06
1765 H 43.96771480890617 42.20983088505875 66.29569500286561 H 0.0 **** 0.06
1766 C 37.541138479910366 106.79506155605162 96.4209764276739 C 0.0 **** -0.24
1767 H 37.1071871964772 107.74607939483906 96.72988270663038 H 0.0 **** 0.06
1768 H 37.80931191821257 106.21383685761236 97.30347493239225 H 0.0 **** 0.06
1769 H 38.433351773632346 106.98132863966924 95.82278183751754 H 0.0 **** 0.06
1770 H 36.814923056988874 106.24018711131384 95.82702757531536 H 0.0 **** 0.06
1771 C 17.255654894994873 105.0514562778448 96.22650614188917 C 0.0 **** -0.24
1772 H 16.188583102239683 105.04449049987574 96.00077604560893 H 0.0 **** 0.06
1773 H 17.81447433778192 104.73564457508712 95.34514947974563 H 0.0 **** 0.06
1774 H 17.457332771767252 104.36687838318295 97.05033856892365 H 0.0 **** 0.06
1775 H 17.559997241372848 106.05895857780473 96.50876231261743 H 0.0 **** 0.06
1776 C 58.784065478741326 48.002367610416 26.198091340965618 C 0.0 **** -0.24
1777 H 58.51943703912531 47.21825603175705 25.488982370185482 H 0.0 **** 0.06
1778 H 59.85218553579739 47.95353233898203 26.412118069535296 H 0.0 **** 0.06
1779 H 58.221646840236616 47.862508242724175 27.12083416822668 H 0.0 **** 0.06
1780 H 58.543901256060536 48.97586309322702 25.76959458825999 H 0.0 **** 0.06
1781 C 11.952528565041689 80.63697612278867 80.69339354411639 C 0.0 **** -0.24
1782 H 11.57656432111969 79.97082193846771 79.91686072294831 H 0.0 **** 0.06
1783 H 11.150875870151765 80.86181202735315 81.3989313881317 H 0.0 **** 0.06
1784 H 12.305459521903742 81.56221927392932 80.23845447378756 H 0.0 **** 0.06
1785 H 12.775026336519716 80.15322451614583 81.21975416591619 H 0.0 **** 0.06
1786 C 31.86034098234738 45.21142614886482 29.003017116674755 C 0.0 **** -0.24
1787 H 31.722377962262748 45.09297736986984 30.078630857507306 H 0.0 **** 0.06
1788 H 31.68304575290575 46.2504352101318 28.72673417484421 H 0.0 **** 0.06
1789 H 31.15568566975952 44.56912562067399 28.47474667784809 H 0.0 **** 0.06
1790 H 32.87920762114747 44.93177428931784 28.734951184203823 H 0.0 **** 0.06
1791 C 107.29671254263884 49.775430015128876 68.90463417728512 C 0.0 **** -0.24
1792 H 107.00148784902446 50.40203090881687 68.06217200970626 H 0.0 **** 0.06
1793 H 106.40661705561536 49.44970778813274 69.44345030179298 H 0.0 **** 0.06
1794 H 107.9389043951393 50.34770011804346 69.57360297438986 H 0.0 **** 0.06
1795 H 107.83868753754507 48.90445708432889 68.53649428785693 H 0.0 **** 0.06
1796 C 100.63536105947756 103.221074989361 15.733104740789514 C 0.0 **** -0.24
1797 H 99.74809091056603 102.61296211768985 15.90773612957237 H 0.0 **** 0.06
1798 H 100.33999621670561 104.25905383856411 15.579048700074992 H 0.0 **** 0.06
1799 H 101.15663619730901 102.8557746290395 14.847365676608135 H 0.0 **** 0.06
1800 H 101.2966294975189 103.15603907521859 16.59632663686567 H 0.0 **** 0.06
1801 C 49.990643034652294 104.16313574931024 72.81751350359525 C 0.0 **** -0.24
1802 H 49.41238779726018 104.33510406019599 71.9100133755461 H 0.0 **** 0.06
1803 H 49.83448829514492 103.13881925007905 73.15828941336594 H 0.0 **** 0.06
1804 H 49.664840537547946 104.85670941007743 73.59226443646253 H 0.0 **** 0.06
1805 H 51.04914564641007 104.32060506161736 72.61009755539482 H 0.0 **** 0.06
1806 C 37.594671891265854 87.62363092180362 88.64311621529299 C 0.0 **** -0.24
1807 H 37.13610488361638 87.08588706370938 89.47259348641114 H 0.0 **** 0.06
1808 H 38.28344492619619 88.37387072619788 89.03405709906662 H 0.0 **** 0.06
1809 H 36.819581029733904 88.11421789170117 88.0542008383699 H 0.0 **** 0.06
1810 H 38.140326781344015 86.92181677595954 88.0135621644672 H 0.0 **** 0.06
1811 C 78.7477109593935 83.85156888711907 83.58211896408739 C 0.0 **** -0.24
1812 H 77.76485226780468 84.02325423113335 84.02271258930466 H 0.0 **** 0.06
1813 H 79.48364603242113 83.72503818168315 84.37690531314337 H 0.0 **** 0.06
1814 H 79.02291091001656 84.70619246382455 82.96374506326188 H 0.0 **** 0.06
1815 H 78.71756033679979 82.95225063280702 82.96740982847138 H 0.0 **** 0.06
1816 C 97.16458548456103 25.089409726516173 1.5585078069664222 C 0.0 **** -0.24
1817 H 98.11718813144739 24.777892307319703 1.131483494745873 H 0.0 **** 0.06
1818 H 96.36165055789729 24.48740049527571 1.1322049116007662 H 0.0 **** 0.06
1819 H 96.99061877595852 26.14112413718238 1.331617741916535 H 0.0 **** 0.06
1820 H 97.18847559931731 24.95008690048228 2.6394630149200644 H 0.0 **** 0.06
1821 C 22.562122660759663 104.01814999773457 13.831222074590713 C 0.0 **** -0.24
1822 H 22.2468226529569 104.00151573734496 14.874902093223913 H 0.0 **** 0.06
1823 H 22.723867530002238 102.99742569296126 13.484249108561137 H 0.0 **** 0.06
1824 H 23.48985311452049 104.58426435173571 13.742387828263531 H 0.0 **** 0.06
1825 H 21.788968093831564 104.49012195185563 13.226252536459665 H 0.0 **** 0.06
1826 C 85.63766677128473 43.099805874100554 34.63436181605218 C 0.0 **** -0.24
1827 H 84.96778264290995 43.89963704764122 34.315984418202504 H 0.0 **** 0.06
1828 H 85.85908437309914 43.21275209548986 35.69521811311864 H 0.0 **** 0.06
1829 H 86.56330401470979 43.153117924594824 34.06111382560988 H 0.0 **** 0.06
1830 H 85.15885039270836 42.13544781920322 34.462250839872496 H 0.0 **** 0.06
1831 C 66.53684777317991 68.05105101913679 56.735311553992545 C 0.0 **** -0.24
1832 H 66.93828339252741 68.68251413551928 55.94412106103559 H 0.0 **** 0.06
1833 H 66.09501067929295 67.15544894490748 56.295928175348735 H 0.0 **** 0.06
1834 H 65.77317866548495 68.59949899063645 57.28595844883887 H 0.0 **** 0.06
1835 H 67.33887154558829 67.76460280080155 57.41475394292297 H 0.0 **** 0.06
1836 C 64.88959536478876 86.30135970881149 70.20776940608789 C 0.0 **** -0.24
1837 H 65.11834162311884 87.19353674931374 69.62566549647934 H 0.0 **** 0.06
1838 H 63.85343877964462 86.00960637720162 70.033883523122 H 0.0 **** 0.06
1839 H 65.03532830463618 86.51207429135702 71.26791943313339 H 0.0 **** 0.06
1840 H 65.55196923371176 85.49027971791483 69.90432440878618 H 0.0 **** 0.06
1841 C 6.407539232909812 8.935579022017833 9.508598227696282 C 0.0 **** -0.24
1842 H 7.177562493466667 8.171278747200887 9.402626482070815 H 0.0 **** 0.06
1843 H 6.0128836025705255 8.916162330749358 10.524105796002473 H 0.0 **** 0.06
1844 H 5.601182133582256 8.74019658052346 8.800740382230202 H 0.0 **** 0.06
1845 H 6.839479916625862 9.916292337496856 9.304183273112272 H 0.0 **** 0.06
1846 C 53.891378048947786 29.921843386203733 25.395306842730548 C 0.0 **** -0.24
1847 H 53.475299117155544 29.42575916770744 26.27269874460928 H 0.0 **** 0.06
1848 H 53.38105530045604 29.563494814156712 24.501410475934723 H 0.0 **** 0.06
1849 H 54.95556030807962 29.69690155742842 25.321828656399006 H 0.0 **** 0.06
1850 H 53.75295980849235 30.998750717084278 25.487636082730532 H 0.0 **** 0.06
1851 C 29.123857136902245 7.496152790942574 110.49996597647134 C 0.0 **** -0.24
1852 H 29.368003143198393 6.44109367443474 110.37176389037 H 0.0 **** 0.06
1853 H 28.20435468797814 7.723105461862673 109.96199908361706 H 0.0 **** 0.06
1854 H 29.936521898866147 8.10688952764815 110.10719844455144 H 0.0 **** 0.06
1855 H 28.987859228792672 7.710850648554185 111.56036692794282 H 0.0 **** 0.06
1856 C 37.941364647271 3.8925072235572316 43.05278423768701 C 0.0 **** -0.24
1857 H 37.743175383615835 2.902667398054774 43.46359910321681 H 0.0 **** 0.06
1858 H 37.306299614017334 4.058629793189709 42.18262768517209 H 0.0 **** 0.06
1859 H 38.98878920947135 3.9605436580376363 42.75687610750691 H 0.0 **** 0.06
1860 H 37.728382701523586 4.64852159000327 43.80872452202186 H 0.0 **** 0.06
1861 C 7.057010222245282 104.27883667998935 81.5030856849358 C 0.0 **** -0.24
1862 H 6.212989798400287 103.68598428161425 81.85650939996961 H 0.0 **** 0.06
1863 H 7.810689839583546 103.61814787228704 81.07554267304425 H 0.0 **** 0.06
1864 H 7.487854366552881 104.83040673093586 82.33808058445521 H 0.0 **** 0.06
1865 H 6.713468029350679 104.9799916422678 80.7418943423148 H 0.0 **** 0.06
1866 C 20.70807026275986 6.192787973315523 57.56799252865204 C 0.0 **** -0.24
1867 H 21.50632693165872 6.388934637789665 58.28429940601566 H 0.0 **** 0.06
1868 H 20.60081127821195 5.117515456396477 57.4288767337149 H 0.0 **** 0.06
1869 H 20.95311817615547 6.661301254184059 56.615411560796986 H 0.0 **** 0.06
1870 H 19.772975601348406 6.606283567119608 57.946172531934394 H 0.0 **** 0.06
1871 C 48.88947889811373 99.24646174214304 45.304385322956904 C 0.0 **** -0.24
1872 H 48.45645666329554 98.79709219834348 44.410904785253194 H 0.0 **** 0.06
1873 H 48.71880110139813 98.59225961810499 46.15933701746583 H 0.0 **** 0.06
1874 H 48.422559441441436 100.21434195177443 45.48650848497654 H 0.0 **** 0.06
1875 H 49.96156638401834 99.38251123163067 45.158863026429 H 0.0 **** 0.06
1876 C 50.960352281775386 46.48818814228639 6.579101750199007 C 0.0 **** -0.24
1877 H 50.296021487468124 47.30093519133263 6.872051476584868 H 0.0 **** 0.06
1878 H 50.61440455252733 45.55619586708764 7.027927308068081 H 0.0 **** 0.06
1879 H 51.971566236567924 46.70380611501105 6.92239884992857 H 0.0 **** 0.06
1880 H 50.95825346150076 46.39108308271918 5.4929756136552506 H 0.0 **** 0.06
1881 C 100.42089680363009 74.33174859626887 25.126337476821902 C 0.0 **** -0.24
1882 H 99.53168160394887 74.9201427157531 24.900555701987003 H 0.0 **** 0.06
1883 H 100.7909653987873 73.8687128389876 24.211669860982596 H 0.0 **** 0.06
1884 H 100.17007242489683 73.5576774653354 25.850908175067133 H 0.0 **** 0.06
1885 H 101.19064553519195 74.98246497553274 25.543183847090603 H 0.0 **** 0.06
1886 C 31.08118816479326 98.44633089434274 7.105514830159478 C 0.0 **** -0.24
1887 H 32.15944692233091 98.40525779174892 6.948544045068871 H 0.0 **** 0.06
1888 H 30.58236886430047 97.82132642341645 6.364571198046377 H 0.0 **** 0.06
1889 H 30.739051241650955 99.47625033285472 7.003819159891577 H 0.0 **** 0.06
1890 H 30.846052603036114 98.08251081176967 8.10567628741208 H 0.0 **** 0.06
1891 C 49.24372350064379 8.429602519162941 78.94113380849484 C 0.0 **** -0.24
1892 H 49.74402581723561 9.388349256288535 79.07515987155773 H 0.0 **** 0.06
1893 H 49.45181001966221 8.048912741293236 77.9402841109737 H 0.0 **** 0.06
1894 H 48.16909811167748 8.559930286921812 79.06448543488862 H 0.0 **** 0.06
1895 H 49.6121377379386 7.721125332827171 79.68348803053195 H 0.0 **** 0.06
1896 C 79.55542248797374 91.20863227208147 105.4943077167975 C 0.0 **** -0.24
1897 H 79.1236487272821 90.44095643097697 106.1355735725432 H 0.0 **** 0.06
1898 H 79.71518760076106 90.80087040850182 104.49595350941274 H 0.0 **** 0.06
1899 H 80.50918757065682 91.53374504847457 105.90971904660026 H 0.0 **** 0.06
1900 H 78.87593445935045 92.05825110806487 105.4353880235997 H 0.0 **** 0.06
1901 C 98.96769036187166 90.89116631807305 70.51079486135238 C 0.0 **** -0.24
1902 H 97.96033315764704 90.62183124832043 70.19385827810841 H 0.0 **** 0.06
1903 H 98.91482168298009 91.70154571830277 71.23836609555129 H 0.0 **** 0.06
1904 H 99.54635461084209 91.21554854750367 69.64600611281752 H 0.0 **** 0.06
1905 H 99.44883185868323 90.0247913095428 70.96591022392438 H 0.0 **** 0.06
1906 C 20.54419207549239 89.5285690177405 33.114249850111946 C 0.0 **** -0.24
1907 H 21.339004627307588 89.69635326255622 32.387129357624076 H 0.0 **** 0.06
1908 H 19.640055104439057 90.0432480881276 32.78838707823297 H 0.0 **** 0.06
1909 H 20.85309507729889 89.91677931356588 34.085885861778365 H 0.0 **** 0.06
1910 H 20.345271796514794 88.45989044676924 33.196363068176254 H 0.0 **** 0.06
1911 C 91.54725901881848 48.85632083423471 96.6185325500318 C 0.0 **** -0.24
1912 H 92.36614602487576 48.21875895440343 96.95392444795613 H 0.0 **** 0.06
1913 H 91.55242044062103 48.91005910607029 95.52984788862912 H 0.0 **** 0.06
1914 H 91.67258929085025 49.856372189839874 97.03293249266386 H 0.0 **** 0.06
1915 H 90.59968583740685 48.43845169846071 96.957640428024 H 0.0 **** 0.06
1916 C 96.18330006946742 27.883904803350305 53.30329769120874 C 0.0 **** -0.24
1917 H 96.88415383998354 27.14959563869793 53.70000886942 H 0.0 **** 0.06
1918 H 96.42909612255113 28.87062236640793 53.698667891854626 H 0.0 **** 0.06
1919 H 95.1685707521874 27.615810765693993 53.5996518634816 H 0.0 **** 0.06
1920 H 96.25108148626713 27.900359280049116 52.21542790454316 H 0.0 **** 0.06
1921 C 93.39832436087258 34.39534184132682 61.07022905179754 C 0.0 **** -0.24
1922 H 93.09150384070821 34.74656278426253 62.05547458186706 H 0.0 **** 0.06
1923 H 93.92687023826242 35.19338646106064 60.54807982880956 H 0.0 **** 0.06
1924 H 92.51730498172661 34.105486431076116 60.49715012786241 H 0.0 **** 0.06
1925 H 94.05853042497388 33.53470749774794 61.181845616769266 H 0.0 **** 0.06
1926 C 7.229744517699208 11.317227430024133 19.13160218889638 C 0.0 **** -0.24
1927 H 6.191054524115154 11.425907621303622 19.446571290705336 H 0.0 **** 0.06
1928 H 7.761075677382486 10.69041147307999 19.84725968390636 H 0.0 **** 0.06
1929 H 7.699688416916503 12.30004673396985 19.088188971073123 H 0.0 **** 0.06
1930 H 7.263633043623802 10.85376122552853 18.146144769592183 H 0.0 **** 0.06
1931 C 69.91434754049675 29.8690628747095 10.440573253120874 C 0.0 **** -0.24
1932 H 69.60909227606186 28.861552702609544 10.158941966066664 H 0.0 **** 0.06
1933 H 69.08848435215083 30.37077518461905 10.94578957269755 H 0.0 **** 0.06
1934 H 70.18777807138233 30.429459070439492 9.54667025574284 H 0.0 **** 0.06
1935 H 70.77203546239184 29.814464541169997 11.110891217976643 H 0.0 **** 0.06
1936 C 17.209639421166628 9.585072851063273 106.24702115660652 C 0.0 **** -0.24
1937 H 17.480753079763133 10.560173586019005 106.65108507100044 H 0.0 **** 0.06
1938 H 16.77718818080632 8.97178392366277 107.03848020199965 H 0.0 **** 0.06
1939 H 18.09927999823782 9.094726038758552 105.8523803630882 H 0.0 **** 0.06
1940 H 16.479882578273703 9.713745247307031 105.44750561094546 H 0.0 **** 0.06
1941 C 70.67491862829891 78.35596831579448 47.21372752099448 C 0.0 **** -0.24
1942 H 70.12149185942235 78.25442126618728 48.14695616936336 H 0.0 **** 0.06
1943 H 71.74251930308739 78.25659110580455 47.41100327811681 H 0.0 **** 0.06
1944 H 70.47471163755733 79.33526395824717 46.77793056881271 H 0.0 **** 0.06
1945 H 70.35952162032643 77.57829952648456 46.51745116734534 H 0.0 **** 0.06
1946 C 81.83320318300201 93.33291872672388 37.31549954097133 C 0.0 **** -0.24
1947 H 82.70616901215766 93.09863372371552 37.925406068744365 H 0.0 **** 0.06
1948 H 80.96203056020886 93.45428464370272 37.96024629046906 H 0.0 **** 0.06
1949 H 81.6543261144459 92.51971476947011 36.61195277014218 H 0.0 **** 0.06
1950 H 82.01149345335739 94.25642117403818 36.76602937470338 H 0.0 **** 0.06
1951 C 41.48710437142455 92.40866603133546 32.49685545164948 C 0.0 **** -0.24
1952 H 42.17891943964656 93.23445698884416 32.330861665110774 H 0.0 **** 0.06
1953 H 41.84387507988015 91.79718684970626 33.326225484432655 H 0.0 **** 0.06
1954 H 41.42433068996178 91.79947020284101 31.596163745844194 H 0.0 **** 0.06
1955 H 40.500280485621886 92.80482553776085 32.73669082189929 H 0.0 **** 0.06
1956 C 88.03360317186518 30.32062467459096 102.02224427989712 C 0.0 **** -0.24
1957 H 89.03090582871285 29.924044013219316 101.83048153697932 H 0.0 **** 0.06
1958 H 87.69374902549706 30.884821901757704 101.15426424850169 H 0.0 **** 0.06
1959 H 88.06585039268921 30.976660231113613 102.8929717182124 H 0.0 **** 0.06
1960 H 87.34546793251648 29.497290189592405 102.21359721586346 H 0.0 **** 0.06
1961 C 7.067529829133235 63.46759450741129 96.72049787964129 C 0.0 **** -0.24
1962 H 6.6685087425484255 62.45475284684677 96.66131428132887 H 0.0 **** 0.06
1963 H 8.15526341225933 63.43452874532693 96.64540374198947 H 0.0 **** 0.06
1964 H 6.782392682675123 63.914565065618504 97.6728260033337 H 0.0 **** 0.06
1965 H 6.663907232831747 64.06513015832668 95.90263315021161 H 0.0 **** 0.06
1966 C 18.457913148314475 23.42193348832342 47.29126056863648 C 0.0 **** -0.24
1967 H 18.91191187124946 24.3527246804411 46.9505441590294 H 0.0 **** 0.06
1968 H 17.458592255984 23.62404447961586 47.67608989067679 H 0.0 **** 0.06
1969 H 19.071135561760514 22.986692818042684 48.080826019973145 H 0.0 **** 0.06
1970 H 18.39152573201605 22.723322726757544 46.456681937846355 H 0.0 **** 0.06
1971 C 85.63253459656366 102.35734884512043 59.84658598820954 C 0.0 **** -0.24
1972 H 86.01148153212924 102.03775943742068 60.81731074806247 H 0.0 **** 0.06
1973 H 85.53063865412773 101.49075230815298 59.19390892145205 H 0.0 **** 0.06
1974 H 86.32832569997456 103.0691570920117 59.402012587169864 H 0.0 **** 0.06
1975 H 84.65973281414757 102.83262711698995 59.97597312823734 H 0.0 **** 0.06
1976 C 62.751081208885864 7.872578695315539 19.16766895792347 C 0.0 **** -0.24
1977 H 63.459189467440865 8.14345570581736 19.950362407397265 H 0.0 **** 0.06
1978 H 63.2774249913241 7.777706147847624 18.21775361009078 H 0.0 **** 0.06
1979 H 61.98828198487098 8.648069888943496 19.084160929374043 H 0.0 **** 0.06
1980 H 62.2779117683107 6.923445509353343 19.418743830159055 H 0.0 **** 0.06
1981 C 25.65701107659862 32.212354743322464 13.82835828796891 C 0.0 **** -0.24
1982 H 25.958360790790067 31.706516884368426 12.91145201865551 H 0.0 **** 0.06
1983 H 25.39629714159304 31.46951787385666 14.583781003308161 H 0.0 **** 0.06
1984 H 24.793212129215277 32.84479674635725 13.627355441703017 H 0.0 **** 0.06
1985 H 26.48126472642889 32.82683980011444 14.191714605264977 H 0.0 **** 0.06
1986 C 49.79158784353925 14.64208808133547 22.581200432062392 C 0.0 **** -0.24
1987 H 50.33623403261472 14.40925411651109 21.666475567035402 H 0.0 **** 0.06
1988 H 50.40246759180824 15.286229407543157 23.213941796657256 H 0.0 **** 0.06
1989 H 49.56657102978093 13.717492247482888 23.114217116102164 H 0.0 **** 0.06
1990 H 48.86152733349245 15.152690657422887 22.330932172463978 H 0.0 **** 0.06
1991 C 12.347654414957582 89.33628126759453 28.908124688044126 C 0.0 **** -0.24
1992 H 12.45879894848903 88.95426783633684 27.89376512750715 H 0.0 **** 0.06
1993 H 13.070391877139791 88.84634567422273 29.562129663374606 H 0.0 **** 0.06
1994 H 11.337987236452918 89.1320462117908 29.26445734572313 H 0.0 **** 0.06
1995 H 12.524696566208387 90.4119528252287 28.912543416814813 H 0.0 **** 0.06
1996 C 59.58825024831435 95.52699397514853 99.2260288495598 C 0.0 **** -0.24
1997 H 58.76650717950628 94.94166064673456 98.8139597607625 H 0.0 **** 0.06
1998 H 60.329703436861806 95.708623757372 98.4475716862393 H 0.0 **** 0.06
1999 H 60.04989923618045 94.97783057480862 100.04693415945226 H 0.0 **** 0.06
2000 H 59.20715152652524 96.47884026184187 99.59427479958292 H 0.0 **** 0.06
2001 C 33.48191695206282 4.276689950396587 82.85912009062665 C 0.0 **** -0.24
2002 H 33.86378574123657 3.2577995587712394 82.8019249355732 H 0.0 **** 0.06
2003 H 32.39228722787317 4.25881678960684 82.82371692068229 H 0.0 **** 0.06
2004 H 33.863645739289694 4.855987162513713 82.01784031989384 H 0.0 **** 0.06
2005 H 33.80738212269833 4.7349760105427094 83.79291665994758 H 0.0 **** 0.06
2006 C 46.95384676883259 33.609863960431014 4.004052758613312 C 0.0 **** -0.24
2007 H 47.002437666324624 32.52314283033545 3.925714325152768 H 0.0 **** 0.06
2008 H 46.970627547176264 33.89947988351154 5.055357576271888 H 0.0 **** 0.06
2009 H 46.03228655563004 33.96566057151404 3.544019883472231 H 0.0 **** 0.06
2010 H 47.80958442727734 34.049222536170966 3.4921164360163033 H 0.0 **** 0.06
2011 C 46.388885559317146 65.53463136884926 56.180397820739415 C 0.0 **** -0.24
2012 H 45.784138113941594 66.34049703397903 55.765492111217554 H 0.0 **** 0.06
2013 H 45.92567328908001 65.16808695098626 57.09672109211192 H 0.0 **** 0.06
2014 H 47.38892049171346 65.90859968718647 56.40151678986945 H 0.0 **** 0.06
2015 H 46.45689385911339 64.72248167356724 55.45655980158705 H 0.0 **** 0.06
2016 C 40.553430178654594 6.483241931867127 85.74871159836056 C 0.0 **** -0.24
2017 H 41.60550811105813 6.243252430021926 85.89858399649427 H 0.0 **** 0.06
2018 H 40.23827736495306 6.138934862874777 84.76343544166548 H 0.0 **** 0.06
2019 H 40.41378030136762 7.561779208084062 85.81853969546779 H 0.0 **** 0.06
2020 H 39.95556287480868 5.989057962723734 86.51509118353874 H 0.0 **** 0.06
2021 C 100.44822719949939 53.80821787351139 43.71647925761579 C 0.0 **** -0.24
2022 H 99.41705516498814 54.07941782788124 43.94611729236078 H 0.0 **** 0.06
2023 H 100.77517701920954 54.345451597670646 42.827017959884756 H 0.0 **** 0.06
2024 H 100.50952596168132 52.734839063683665 43.536717944359395 H 0.0 **** 0.06
2025 H 101.08848289403034 54.07306593563393 44.55848752896361 H 0.0 **** 0.06
2026 C 50.377642750714045 25.31185214678976 55.67445407121066 C 0.0 **** -0.24
2027 H 49.86619214163443 25.70833681036322 56.55166096038482 H 0.0 **** 0.06
2028 H 49.988959697799146 24.31929391511244 55.44499511437671 H 0.0 **** 0.06
2029 H 51.44699982382721 25.246546164462927 55.87649450315445 H 0.0 **** 0.06
2030 H 50.20801971838054 25.974558501870092 54.825704958165815 H 0.0 **** 0.06
2031 C 98.94570900785813 44.098846846193986 28.06905542707024 C 0.0 **** -0.24
2032 H 98.11379412219887 44.37099740557598 28.719041930305238 H 0.0 **** 0.06
2033 H 99.0199327586509 43.011822280098315 28.011320878723268 H 0.0 **** 0.06
2034 H 99.87202423112204 44.50572268278525 28.475008512754187 H 0.0 **** 0.06
2035 H 98.77603075666808 44.504617695364274 27.07256159504209 H 0.0 **** 0.06
2036 C 102.44617370190377 64.50816993403508 65.15125000391822 C 0.0 **** -0.24
2037 H 101.9536285899149 64.89651631355713 66.04327308940643 H 0.0 **** 0.06
2038 H 103.43830629445307 64.1405972644502 65.41584034887131 H 0.0 **** 0.06
2039 H 102.5388950327362 65.30441440699842 64.41234524008775 H 0.0 **** 0.06
2040 H 101.85506010055576 63.69296128939213 64.73468034824126 H 0.0 **** 0.06
2041 C 100.84262977661464 103.5192529943742 78.25895766279282 C 0.0 **** -0.24
2042 H 100.84683503184684 102.96187344473844 79.19557128474474 H 0.0 **** 0.06
2043 H 101.47324430777826 103.009429751781 77.52987168748783 H 0.0 **** 0.06
2044 H 101.22675576415513 104.52446992136925 78.4323932033318 H 0.0 **** 0.06
2045 H 99.82311307111016 103.58041811034866 77.87797307289804 H 0.0 **** 0.06
2046 C 20.53476569307483 3.10437026216664 42.991815647917974 C 0.0 **** -0.24
2047 H 20.449794607937037 2.6882837886398647 41.98815351748402 H 0.0 **** 0.06
2048 H 21.546509586183817 3.482872560886392 43.144613369455016 H 0.0 **** 0.06
2049 H 20.322392904989158 2.3276136073095586 43.72649356029791 H 0.0 **** 0.06
2050 H 19.820055013618543 3.9200168996961224 43.108447629569014 H 0.0 **** 0.06
2051 C 90.569371047797 30.865288258762575 51.55691055304676 C 0.0 **** -0.24
2052 H 90.631194660799 31.23434066432904 52.58037274782828 H 0.0 **** 0.06
2053 H 89.90381190400069 31.50582207395658 50.97810730695068 H 0.0 **** 0.06
2054 H 90.18168599855707 29.84674573335954 51.560928056810404 H 0.0 **** 0.06
2055 H 91.56283439281992 30.873053119492297 51.10759545024812 H 0.0 **** 0.06
2056 C 26.050798872514886 0.07783591065448547 101.12134896205032 C 0.0 **** -0.24
2057 H 26.18187434852367 1.1589735214280097 101.16096452866473 H 0.0 **** 0.06
2058 H 26.67931230079799 -0.335444225755424 100.33325247561254 H 0.0 **** 0.06
2059 H 25.00568241554229 -0.15416263291515975 100.91349069550088 H 0.0 **** 0.06
2060 H 26.335633725071947 -0.3579882594660404 102.07981399169623 H 0.0 **** 0.06
2061 C 24.063159672693473 2.992826196367247 16.0623276697078 C 0.0 **** -0.24
2062 H 24.506020167234453 2.239996738222402 15.41044339512851 H 0.0 **** 0.06
2063 H 23.033945030409313 2.714537905827825 16.291896060214228 H 0.0 **** 0.06
2064 H 24.074204081039 3.9608908107200307 15.559680928065816 H 0.0 **** 0.06
2065 H 24.63768492439428 3.0574843668824485 16.985945420227225 H 0.0 **** 0.06
2066 C 1.9340053968637676 39.63771858744897 92.88688352945638 C 0.0 **** -0.24
2067 H 2.2008537939922235 40.649013048924374 92.57923242736882 H 0.0 **** 0.06
2068 H 0.9471966858259293 39.64698855447216 93.34785129421431 H 0.0 **** 0.06
2069 H 2.667909915994585 39.27085539716336 93.60398621033607 H 0.0 **** 0.06
2070 H 1.921186419836772 38.98481249869078 92.01361776681756 H 0.0 **** 0.06
2071 C 87.05984831500606 45.492874153679054 91.24074006048829 C 0.0 **** -0.24
2072 H 87.42935026908924 46.435192664674105 91.64534958421245 H 0.0 **** 0.06
2073 H 87.86800169030766 44.980239863803945 90.7185418572501 H 0.0 **** 0.06
2074 H 86.24429483252776 45.691539494692165 90.54463849887219 H 0.0 **** 0.06
2075 H 86.69680692421785 44.86484891416944 92.05454040342556 H 0.0 **** 0.06
2076 C 56.51945508517432 41.263007550511816 78.88175003250666 C 0.0 **** -0.24
2077 H 57.334102913675174 41.077750959666815 79.58203972730331 H 0.0 **** 0.06
2078 H 56.33212657260103 42.334998530655014 78.81801535180892 H 0.0 **** 0.06
2079 H 55.61928214479181 40.756559867973095 79.23007912346554 H 0.0 **** 0.06
2080 H 56.79334659154579 40.88263820228943 77.89782304398858 H 0.0 **** 0.06
2081 C 72.01627366703431 93.07748220520324 40.98312989529227 C 0.0 **** -0.24
2082 H 71.09415859149797 93.5099585854171 40.593761506869754 H 0.0 **** 0.06
2083 H 72.21880391886909 92.13468942561038 40.47567253965911 H 0.0 **** 0.06
2084 H 71.9093434811388 92.89913074750689 42.05324504755707 H 0.0 **** 0.06
2085 H 72.84122617130251 93.76873635782819 40.81077330818161 H 0.0 **** 0.06
2086 C 78.05028970667922 43.165619659532695 25.208022667948114 C 0.0 **** -0.24
2087 H 78.31658229053653 42.260307647116065 25.752941119018203 H 0.0 **** 0.06
2088 H 77.62894840180377 42.897200304948484 24.239429735423414 H 0.0 **** 0.06
2089 H 78.94192302586993 43.77596120845226 25.05966154866769 H 0.0 **** 0.06
2090 H 77.31483416336437 43.730998023071464 25.780936462145405 H 0.0 **** 0.06
2091 C 100.24703604272732 46.82836621138564 42.811687909566274 C 0.0 **** -0.24
2092 H 99.41200203530671 47.33846978184765 42.331383537819846 H 0.0 **** 0.06
2093 H 99.91943560054466 45.85035029133426 43.16513037331964 H 0.0 **** 0.06
2094 H 100.59697447635814 47.42235904260378 43.65660470696099 H 0.0 **** 0.06
2095 H 101.05808735990357 46.70408560023705 42.093869100215684 H 0.0 **** 0.06
2096 C 102.7448921401159 93.53167182310699 91.06471511631798 C 0.0 **** -0.24
2097 H 102.99833035888524 92.89005246559987 90.22088907180944 H 0.0 **** 0.06
2098 H 102.10731759467456 92.98384395139828 91.75886068568832 H 0.0 **** 0.06
2099 H 102.21685179363487 94.41387640503697 90.70441782139574 H 0.0 **** 0.06
2100 H 103.65900319959906 93.83780667743059 91.57451626343493 H 0.0 **** 0.06
2101 C 93.28864276332678 4.4729470324118665 71.70142189205453 C 0.0 **** -0.24
2102 H 93.1236674154315 3.6378510779649105 72.38178619360929 H 0.0 **** 0.06
2103 H 92.44249160711448 4.558239501035075 71.01944816888363 H 0.0 **** 0.06
2104 H 94.20122235608517 4.300457908998453 71.12939933612634 H 0.0 **** 0.06
2105 H 93.38818188103915 5.394278430740883 72.27535669079828 H 0.0 **** 0.06
2106 C 46.81393876893543 28.92315118059841 84.56213108554219 C 0.0 **** -0.24
2107 H 47.13745604793178 28.37813336076323 83.67616223454145 H 0.0 **** 0.06
2108 H 46.03719466320388 28.355994495624344 85.07536167292785 H 0.0 **** 0.06
2109 H 46.41753384567028 29.89486108883898 84.2662615827161 H 0.0 **** 0.06
2110 H 47.6621228203162 29.066190360863203 85.23126434222695 H 0.0 **** 0.06
2111 C 94.25135153345843 73.5487177251364 12.036083094641569 C 0.0 **** -0.24
2112 H 94.83926665251846 73.87711438164534 11.178931891355234 H 0.0 **** 0.06
2113 H 93.29539567782638 73.15444347677668 11.689937168564025 H 0.0 **** 0.06
2114 H 94.07718483784106 74.39341121010162 12.702133827178141 H 0.0 **** 0.06
2115 H 94.79381877075542 72.76945604698822 12.57054845223313 H 0.0 **** 0.06
2116 C 40.53170621999579 26.540220553645646 64.11095722648747 C 0.0 **** -0.24
2117 H 41.41202551307152 25.89831005583583 64.07479650614826 H 0.0 **** 0.06
2118 H 39.75360171488749 26.055249662566844 64.70135912502028 H 0.0 **** 0.06
2119 H 40.16584872400253 26.712209270061635 63.09925526986538 H 0.0 **** 0.06
2120 H 40.795042763856806 27.49255272586 64.56958011685174 H 0.0 **** 0.06
2121 C 37.95084316461103 5.5703835285895575 19.520668648828405 C 0.0 **** -0.24
2122 H 38.657075151972975 4.761064254868 19.331955933549295 H 0.0 **** 0.06
2123 H 37.45382613717243 5.402668696993185 20.47617612855177 H 0.0 **** 0.06
2124 H 37.20833871855058 5.597008498909039 18.7233688491782 H 0.0 **** 0.06
2125 H 38.48640985482291 6.51889768324161 19.550700562923055 H 0.0 **** 0.06
2126 C 93.45869860837786 95.82306623479946 40.433501897296566 C 0.0 **** -0.24
2127 H 94.29130126858195 96.19699959281006 41.029404899762596 H 0.0 **** 0.06
2128 H 93.05010327504675 96.63441072961585 39.83039681565964 H 0.0 **** 0.06
2129 H 92.68316947900772 95.43549241855457 41.09402958851368 H 0.0 **** 0.06
2130 H 93.81026994315914 95.02514336093164 39.778458784849306 H 0.0 **** 0.06
2131 C 54.754202180808775 54.997986405810195 60.88157492777296 C 0.0 **** -0.24
2132 H 55.109310666064395 54.08792695044714 61.36547832908505 H 0.0 **** 0.06
2133 H 55.512019449179576 55.35859363074757 60.186020365008844 H 0.0 **** 0.06
2134 H 54.56146995278361 55.75963036560468 61.637102225012825 H 0.0 **** 0.06
2135 H 53.8332411009588 54.784616381312546 60.33754852016487 H 0.0 **** 0.06
2136 C 11.273391975630432 46.29121622377346 15.060368147660451 C 0.0 **** -0.24
2137 H 10.587916532554232 45.74038181317076 15.70517017091726 H 0.0 **** 0.06
2138 H 11.74099046161976 45.603534549827486 14.355058039292036 H 0.0 **** 0.06
2139 H 12.041447176204656 46.767594268081666 15.669469031583276 H 0.0 **** 0.06
2140 H 10.720568047579093 47.05425149058027 14.511332923833653 H 0.0 **** 0.06
2141 C 79.67817268698232 53.9607277112176 44.39865579970058 C 0.0 **** -0.24
2142 H 80.1304117245096 53.04474314053027 44.78035058366868 H 0.0 **** 0.06
2143 H 79.6794576056734 54.71895456989864 45.18192339598579 H 0.0 **** 0.06
2144 H 78.65207131755452 53.758254658331396 44.09098325237272 H 0.0 **** 0.06
2145 H 80.25051011243227 54.31909720715106 43.543482210134584 H 0.0 **** 0.06
2146 C 81.2883646219351 7.647621136463439 91.25385769191168 C 0.0 **** -0.24
2147 H 80.9453878502859 6.632412658924329 91.05325750720876 H 0.0 **** 0.06
2148 H 81.0708859383285 8.281401253379018 90.39446227138833 H 0.0 **** 0.06
2149 H 82.36270955182385 7.638001745077853 91.43598714986436 H 0.0 **** 0.06
2150 H 80.77487724023126 8.037347391747254 92.13276888392777 H 0.0 **** 0.06
2151 C 88.16368082672494 108.58711255391195 98.44329338231967 C 0.0 **** -0.24
2152 H 89.13574229967418 108.88733503142515 98.05168936921672 H 0.0 **** 0.06
2153 H 87.40755363970217 109.3067950514835 98.12841317076555 H 0.0 **** 0.06
2154 H 88.20546600798309 108.55587477664074 99.53201140273299 H 0.0 **** 0.06
2155 H 87.9087289569544 107.5988884505452 98.0606794890974 H 0.0 **** 0.06
2156 C 58.00151002639726 45.76783685350104 95.87717326812378 C 0.0 **** -0.24
2157 H 58.06578839136967 45.31833306301436 94.8866762595224 H 0.0 **** 0.06
2158 H 57.99357056367208 46.85392411825264 95.78355080443458 H 0.0 **** 0.06
2159 H 58.86137709430956 45.46030015948232 96.47115851379613 H 0.0 **** 0.06
2160 H 57.08530405623787 45.43879007325484 96.36730749474174 H 0.0 **** 0.06
2161 C 21.0113334008349 37.00070292707082 54.87569432756811 C 0.0 **** -0.24
2162 H 21.90033566001756 36.60426175794612 55.366096314158995 H 0.0 **** 0.06
2163 H 20.585194679656155 36.23686776532796 54.22447898766609 H 0.0 **** 0.06
2164 H 21.28295538622811 37.87331523739056 54.282890893435706 H 0.0 **** 0.06
2165 H 20.277365105665353 37.28598779181357 55.62904205315516 H 0.0 **** 0.06
2166 C 52.5471848894461 30.799519244998535 8.91287466981845 C 0.0 **** -0.24
2167 H 52.933901047879225 31.816493852898766 8.970934500819226 H 0.0 **** 0.06
2168 H 52.2873397311738 30.451475448504766 9.91255198601283 H 0.0 **** 0.06
2169 H 53.308437953777414 30.145026431866455 8.486828045897227 H 0.0 **** 0.06
2170 H 51.65953869504708 30.7832549894951 8.279623144824 H 0.0 **** 0.06
2171 C 39.319968371740174 13.32102869667209 108.91268560004136 C 0.0 **** -0.24
2172 H 39.147777240377565 12.249358144776672 109.01079348289483 H 0.0 **** 0.06
2173 H 40.38441321771296 13.505426450551774 108.76203218174027 H 0.0 **** 0.06
2174 H 38.988678236493826 13.826402558593237 109.82040245468181 H 0.0 **** 0.06
2175 H 38.7599084445655 13.7027025744717 108.0585786407687 H 0.0 **** 0.06
2176 C 18.201936027644308 17.504494693918875 7.200785883011491 C 0.0 **** -0.24
2177 H 18.921689089041877 18.320032703959164 7.127334956166322 H 0.0 **** 0.06
2178 H 18.022829954954204 17.087381473982507 6.210003218313744 H 0.0 **** 0.06
2179 H 17.265953095668124 17.883502224787502 7.610887045994588 H 0.0 **** 0.06
2180 H 18.59841164569582 16.728697394592345 7.8563424419279215 H 0.0 **** 0.06
2181 C 105.57530017574132 102.579037039455 98.31445297545764 C 0.0 **** -0.24
2182 H 105.42059380413812 103.3328735601365 97.54199572082416 H 0.0 **** 0.06
2183 H 104.65808800193648 102.00611535644757 98.4520077719998 H 0.0 **** 0.06
2184 H 105.84349680024849 103.0680680839721 99.25075416721984 H 0.0 **** 0.06
2185 H 106.37966176795152 101.90840990960308 98.01159586149572 H 0.0 **** 0.06
2186 C 109.92559717273929 34.54136204577571 43.28697205352003 C 0.0 **** -0.24
2187 H 110.49963594626865 33.801685139901124 42.72798337396189 H 0.0 **** 0.06
2188 H 109.73192356195977 35.406424764892606 42.652638732419476 H 0.0 **** 0.06
2189 H 110.49346070834315 34.853440347862175 44.16460065959126 H 0.0 **** 0.06
2190 H 108.97914850756834 34.1030452058215 43.60371644476234 H 0.0 **** 0.06
2191 C 94.03539469206176 62.14828228626442 81.23497082032958 C 0.0 **** -0.24
2192 H 94.3610139174209 63.18873478093798 81.22719362959572 H 0.0 **** 0.06
2193 H 93.49952965273744 61.942679001877366 82.16248834675224 H 0.0 **** 0.06
2194 H 94.90523321881832 61.49533726516768 81.16614896350592 H 0.0 **** 0.06
2195 H 93.3764094578851 61.96692825363607 80.3861328579577 H 0.0 **** 0.06
2196 C 8.533006274949608 14.630930191793066 99.4832228231376 C 0.0 **** -0.24
2197 H 7.847699754415412 13.893039164304831 99.0661226719027 H 0.0 **** 0.06
2198 H 8.506513836079952 15.535682133254095 98.87406691548865 H 0.0 **** 0.06
2199 H 9.545013905211466 14.225901723896616 99.48686070892758 H 0.0 **** 0.06
2200 H 8.232657565796822 14.869951648937434 100.5029684205468 H 0.0 **** 0.06
2201 C 52.88119217052154 76.39887332569157 15.959432103382582 C 0.0 **** -0.24
2202 H 53.64186100712018 76.08425601734845 15.24562151713286 H 0.0 **** 0.06
2203 H 52.12737571361027 75.61674594447561 16.05398516181107 H 0.0 **** 0.06
2204 H 52.40982947075243 77.31656880545717 15.607766155138364 H 0.0 **** 0.06
2205 H 53.34345782268701 76.57703364721488 16.929941278527025 H 0.0 **** 0.06
2206 C 92.24786180767475 9.017691562992923 20.423317744487008 C 0.0 **** -0.24
2207 H 92.80108492790197 9.94667455694784 20.286429129360357 H 0.0 **** 0.06
2208 H 92.87776333347014 8.292272410461578 20.93954727006175 H 0.0 **** 0.06
2209 H 91.95887054758664 8.620537244826153 19.450188134782053 H 0.0 **** 0.06
2210 H 91.35427650277288 9.210412105255529 21.01613540217116 H 0.0 **** 0.06
2211 C 104.89344804364906 68.73918235366034 73.55684106268603 C 0.0 **** -0.24
2212 H 105.56070438746345 69.50983641271432 73.94153571527104 H 0.0 **** 0.06
2213 H 105.46206827428989 68.04267953342662 72.93873370378881 H 0.0 **** 0.06
2214 H 104.11080617889161 69.20322035590277 72.95514324305645 H 0.0 **** 0.06
2215 H 104.44071057697818 68.20093678532749 74.38977217861603 H 0.0 **** 0.06
2216 C 85.63202496680663 78.52063283386309 59.49704009362382 C 0.0 **** -0.24
2217 H 84.98825268159601 78.17310886913634 60.304588874022 H 0.0 **** 0.06
2218 H 86.24766347661608 77.69314089081001 59.14247682720077 H 0.0 **** 0.06
2219 H 86.27363263594629 79.32163419640034 59.86329971884612 H 0.0 **** 0.06
2220 H 85.01758591359192 78.89320932229464 58.67781966530609 H 0.0 **** 0.06
2221 C 94.43504796095112 10.754415346879039 99.16138242368196 C 0.0 **** -0.24
2222 H 95.23276365411944 10.032695854644643 98.98817348812894 H 0.0 **** 0.06
2223 H 94.83302843874723 11.612116232846791 99.70418762829784 H 0.0 **** 0.06
2224 H 93.64328090168084 10.288398618154787 99.74783195988917 H 0.0 **** 0.06
2225 H 94.03135106030518 11.08567257718078 98.20466345391995 H 0.0 **** 0.06
2226 C 16.618835396713706 91.42368409197616 24.352796600001398 C 0.0 **** -0.24
2227 H 15.859523623138298 91.18371300063484 25.096668367582453 H 0.0 **** 0.06
2228 H 17.447343442413747 90.72003442504126 24.43971809651117 H 0.0 **** 0.06
2229 H 16.98324064092356 92.43717395800911 24.518799044023524 H 0.0 **** 0.06
2230 H 16.18455309511424 91.35258953262303 23.355814075499723 H 0.0 **** 0.06
2231 C 110.13352355836943 53.06436491691235 104.50950318487983 C 0.0 **** -0.24
2232 H 109.60109346215381 53.49173243591494 105.35960080441023 H 0.0 **** 0.06
2233 H 109.52322456036944 52.2842353071716 104.05439148274915 H 0.0 **** 0.06
2234 H 111.07651011531888 52.6365132335232 104.84968110472566 H 0.0 **** 0.06
2235 H 110.33227183649473 53.84505420154841 103.77634084665053 H 0.0 **** 0.06
2236 C 33.997612932668474 38.33883690381782 109.43014239741211 C 0.0 **** -0.24
2237 H 33.024069228620974 37.8549384048398 109.35183767543043 H 0.0 **** 0.06
2238 H 34.1199880981853 39.044191637902486 108.60813889730474 H 0.0 **** 0.06
2239 H 34.78286659305422 37.584075408303846 109.38142347253978 H 0.0 **** 0.06
2240 H 34.063110570761566 38.870849281099254 110.37956256411485 H 0.0 **** 0.06
2241 C 108.89647279461674 2.808345889512424 19.832214438310572 C 0.0 **** -0.24
2242 H 109.49405143962356 3.42692950138202 19.163121936359037 H 0.0 **** 0.06
2243 H 107.84656996215426 3.0870647828352844 19.744001425986067 H 0.0 **** 0.06
2244 H 109.22814879339772 2.9606556492714162 20.860169004893287 H 0.0 **** 0.06
2245 H 109.01789874319746 1.759126410407319 19.563854733175084 H 0.0 **** 0.06
2246 C 101.32282369252563 22.999677372466806 18.583389177469407 C 0.0 **** -0.24
2247 H 101.15260854543345 23.06223626095806 19.65840589517196 H 0.0 **** 0.06
2248 H 102.3668824316042 22.746268165470127 18.39600209249427 H 0.0 **** 0.06
2249 H 101.09287000685656 23.959231218936566 18.12223154849168 H 0.0 **** 0.06
2250 H 100.67904982895845 22.228471323001912 18.15856774111203 H 0.0 **** 0.06
2251 C 32.77796356317168 80.79369858066428 20.9697101264767 C 0.0 **** -0.24
2252 H 32.40171825042211 81.80977875468977 21.083315650957715 H 0.0 **** 0.06
2253 H 32.501888868238666 80.41238489086334 19.98638292403797 H 0.0 **** 0.06
2254 H 32.34585438204232 80.15745063275494 21.741494351375678 H 0.0 **** 0.06
2255 H 33.86388839452678 80.79595908335386 21.065870938525492 H 0.0 **** 0.06
2256 C 21.103733061997758 87.91235833621656 4.307763978897327 C 0.0 **** -0.24
2257 H 20.57998428192849 88.7703355360121 4.731117436880737 H 0.0 **** 0.06
2258 H 20.83767989266738 87.01428814998988 4.8649599653839175 H 0.0 **** 0.06
2259 H 22.179209344047024 88.07566833413534 4.37239611221429 H 0.0 **** 0.06
2260 H 20.816375437181364 87.79138740065979 3.263641704132084 H 0.0 **** 0.06
2261 C 101.17805953250428 71.55496538518521 88.25183674815136 C 0.0 **** -0.24
2262 H 101.12135420733836 70.9434266277644 87.35170700629274 H 0.0 **** 0.06
2263 H 101.38020987542455 72.58978560096928 87.97596344819296 H 0.0 **** 0.06
2264 H 101.97976204755943 71.18583483866452 88.89159643547399 H 0.0 **** 0.06
2265 H 100.23096260578845 71.49996782905806 88.78860989765862 H 0.0 **** 0.06
2266 C 99.27799857798226 25.07952821323481 78.30541733626973 C 0.0 **** -0.24
2267 H 99.40428968089304 25.22597932034199 79.37779988326639 H 0.0 **** 0.06
2268 H 99.70795313558023 25.926192904177018 77.77044565388832 H 0.0 **** 0.06
2269 H 98.21603818979625 25.00376000148353 78.07245161504508 H 0.0 **** 0.06
2270 H 99.78285886286056 24.16263625771956 78.00072243625488 H 0.0 **** 0.06
2271 C 76.38987085546819 21.891124941626515 75.39317337300984 C 0.0 **** -0.24
2272 H 76.88957827904801 22.542581796163148 74.67597172190548 H 0.0 **** 0.06
2273 H 76.68692858787449 22.17131070349484 76.40488009168776 H 0.0 **** 0.06
2274 H 76.67466929403247 20.85648712956285 75.2039112690602 H 0.0 **** 0.06
2275 H 75.31022018075464 21.996317250628124 75.2886472658239 H 0.0 **** 0.06
2276 C 16.295473372013973 106.36346964672504 30.971377877452085 C 0.0 **** -0.24
2277 H 16.10458125174462 106.52554248941826 29.910448411029847 H 0.0 **** 0.06
2278 H 16.77872039953381 107.2455528587534 31.39255158703014 H 0.0 **** 0.06
2279 H 16.946726281858727 105.49776336525531 31.095063172861103 H 0.0 **** 0.06
2280 H 15.352456563847863 106.1842480484288 31.487213722555452 H 0.0 **** 0.06
2281 C 4.601424905932163 71.79037344950524 55.704936766314155 C 0.0 **** -0.24
2282 H 5.476078808293249 71.14343626920999 55.764042724021955 H 0.0 **** 0.06
2283 H 4.365454562550818 72.17332934302641 56.6975592973036 H 0.0 **** 0.06
2284 H 3.7531512663337026 71.22071227744792 55.32463590676141 H 0.0 **** 0.06
2285 H 4.809514267202365 72.62315259973536 55.033561007468705 H 0.0 **** 0.06
2286 C 107.00067200161457 55.19466621962607 100.162748099201 C 0.0 **** -0.24
2287 H 107.4141615904404 55.31125572033824 101.16442318167556 H 0.0 **** 0.06
2288 H 106.0011274579733 55.630268683335544 100.13002163386324 H 0.0 **** 0.06
2289 H 106.94350414830534 54.135220139613324 99.91418514849217 H 0.0 **** 0.06
2290 H 107.64233349554075 55.703305675742484 99.44364439660556 H 0.0 **** 0.06
2291 C 75.69661348385239 66.5357551985292 94.34616033146172 C 0.0 **** -0.24
2292 H 76.24518344089262 66.0017394602197 93.5693392464186 H 0.0 **** 0.06
2293 H 76.2334951723522 67.44900171285742 94.60542980083302 H 0.0 **** 0.06
2294 H 75.60944629407896 65.90235301981483 95.22865864167645 H 0.0 **** 0.06
2295 H 74.7018428270847 66.78901539411848 93.98030610064367 H 0.0 **** 0.06
2296 C 36.502131992572885 41.686692408837274 59.202974154507444 C 0.0 **** -0.24
2297 H 35.52261922854755 42.1008398845545 59.44398534278605 H 0.0 **** 0.06
2298 H 36.5403115193967 40.641718289905604 59.508830476456524 H 0.0 **** 0.06
2299 H 37.27293187156713 42.24846560830948 59.73132932842668 H 0.0 **** 0.06
2300 H 36.671793250464034 41.7579204609292 58.12846618794805 H 0.0 **** 0.06
2301 C 27.669111140563842 3.5625485653976625 79.32784917169676 C 0.0 **** -0.24
2302 H 28.307291456284915 4.091652965353774 80.0359029646017 H 0.0 **** 0.06
2303 H 26.917664000912424 4.248332650968138 78.93474843858749 H 0.0 **** 0.06
2304 H 27.17561222729401 2.7320502286066244 79.83300665662702 H 0.0 **** 0.06
2305 H 28.276452152064195 3.1800794696251558 78.50674925020712 H 0.0 **** 0.06
2306 C 34.06715917437646 17.266170267354823 15.508245755504888 C 0.0 **** -0.24
2307 H 34.68113765332646 16.982661560024923 16.362785366058546 H 0.0 **** 0.06
2308 H 34.69775608396645 17.708943407607507 14.737893130102123 H 0.0 **** 0.06
2309 H 33.317010578611075 17.99003418412795 15.825609603195133 H 0.0 **** 0.06
2310 H 33.57127116938497 16.380713835883896 15.108551114236988 H 0.0 **** 0.06
2311 C 11.707382748902852 17.644725914833828 89.42011749850766 C 0.0 **** -0.24
2312 H 12.041677732375717 18.295885072890172 88.61207271223986 H 0.0 **** 0.06
2313 H 11.034027699952482 18.196902387299843 90.07639480156169 H 0.0 **** 0.06
2314 H 12.570242054016038 17.30040246735871 89.98943627559606 H 0.0 **** 0.06
2315 H 11.182183011342065 16.78633171885798 88.99998605928067 H 0.0 **** 0.06
2316 C 21.382542505407528 10.059187743944847 74.77679209216689 C 0.0 **** -0.24
2317 H 21.51826296581197 8.991952111386752 74.94846833333779 H 0.0 **** 0.06
2318 H 20.801546782885396 10.487222787729763 75.59352931414946 H 0.0 **** 0.06
2319 H 20.854336094258073 10.212090914903456 73.83551564318734 H 0.0 **** 0.06
2320 H 22.357275754428514 10.545825015582295 74.7302191330129 H 0.0 **** 0.06
2321 C 60.33843119338343 51.76619373659355 108.84129045839477 C 0.0 **** -0.24
2322 H 61.29497803399249 51.81918850285922 108.32290223657157 H 0.0 **** 0.06
2323 H 60.001284024912195 50.72952434088637 108.87697181366696 H 0.0 **** 0.06
2324 H 59.60286277119292 52.36956773432513 108.30887269815528 H 0.0 **** 0.06
2325 H 60.45363174596736 52.14633350872998 109.85660683537802 H 0.0 **** 0.06
2326 C 18.95407400376814 51.60621133988958 28.271783539766716 C 0.0 **** -0.24
2327 H 19.127677063912813 50.76714845157673 27.597948853406876 H 0.0 **** 0.06
2328 H 19.82217397865392 51.74002991821334 28.916724405942574 H 0.0 **** 0.06
2329 H 18.074122785792213 51.4044437656732 28.88289682789616 H 0.0 **** 0.06
2330 H 18.790481288604752 52.51267661790652 27.688418398563044 H 0.0 **** 0.06
2331 C 60.66833309293466 74.53923752031818 9.047753075642651 C 0.0 **** -0.24
2332 H 60.67791154292047 73.5235052975587 9.443221205288243 H 0.0 **** 0.06
2333 H 61.21824143714622 74.56712661718484 8.10665755445938 H 0.0 **** 0.06
2334 H 61.13779890171702 75.21340891624135 9.763522222264752 H 0.0 **** 0.06
2335 H 59.63812679951468 74.85148210081661 8.876431593447872 H 0.0 **** 0.06
2336 C 108.31599436998215 41.982585824125024 16.564986291005 C 0.0 **** -0.24
2337 H 107.4222246959236 42.3211323667067 16.04106670620598 H 0.0 **** 0.06
2338 H 108.48135555821898 42.607638368961425 17.44208359849145 H 0.0 **** 0.06
2339 H 109.17690500533436 42.055097538894266 15.899028520152427 H 0.0 **** 0.06
2340 H 108.18445834498019 40.946406197579904 16.876016462684845 H 0.0 **** 0.06
2341 C 92.71571448098788 20.272668589162446 11.636219424968871 C 0.0 **** -0.24
2342 H 91.70670155054714 20.336827214015745 11.227639736231723 H 0.0 **** 0.06
2343 H 93.43113578138343 20.164215815708424 10.820075951091425 H 0.0 **** 0.06
2344 H 92.78515379533135 19.409482674060598 12.298295702395052 H 0.0 **** 0.06
2345 H 92.93861394707676 21.18040930336695 12.19703254884449 H 0.0 **** 0.06
2346 C 38.19174175411641 82.78414760690227 31.103790402927615 C 0.0 **** -0.24
2347 H 38.0352153515049 83.80208272465644 31.46131849138783 H 0.0 **** 0.06
2348 H 38.00648520237612 82.7440341682241 30.030046629172574 H 0.0 **** 0.06
2349 H 37.50733711572617 82.109854259332 31.61770134663533 H 0.0 **** 0.06
2350 H 39.21987202746131 82.48302337383976 31.30676357964657 H 0.0 **** 0.06
2351 C 22.06568254554128 93.2672074536215 60.66387122323124 C 0.0 **** -0.24
2352 H 22.774042678465918 92.55823404495175 61.093111701208144 H 0.0 **** 0.06
2353 H 21.049889971571616 92.9608521067425 60.91549321174092 H 0.0 **** 0.06
2354 H 22.182390459216435 93.28663300043888 59.58102148049937 H 0.0 **** 0.06
2355 H 22.257158738168698 94.2610462512622 61.068887345803745 H 0.0 **** 0.06
2356 C 107.1498596555708 109.58741423965394 47.057584458838846 C 0.0 **** -0.24
2357 H 107.53830881351391 110.46082731370883 46.533010701694025 H 0.0 **** 0.06
2358 H 107.1822683498213 109.76699594833566 48.13258671921699 H 0.0 **** 0.06
2359 H 107.75984132910475 108.71732018693932 46.81584202786411 H 0.0 **** 0.06
2360 H 106.12017437865421 109.40708398326449 46.74914491691567 H 0.0 **** 0.06
2361 C 29.922052136625553 57.282280136062724 24.188005417809507 C 0.0 **** -0.24
2362 H 30.237885995208146 57.93725264322893 25.000255219213386 H 0.0 **** 0.06
2363 H 30.800632409314034 56.890447700643506 23.67503290137074 H 0.0 **** 0.06
2364 H 29.31064691110602 57.84619885978469 23.48347006776541 H 0.0 **** 0.06
2365 H 29.338278978059634 56.45613262229972 24.594028717390813 H 0.0 **** 0.06
2366 C 81.45284105509683 73.84017591513052 1.3537678580492418 C 0.0 **** -0.24
2367 H 81.51037309900659 72.75705456517848 1.2485257153948366 H 0.0 **** 0.06
2368 H 81.7704036065507 74.12453662077881 2.358077999173462 H 0.0 **** 0.06
2369 H 80.4265716072369 74.16754586376642 1.1917907139580377 H 0.0 **** 0.06
2370 H 82.10597809022886 74.3116249029612 0.6189456803385909 H 0.0 **** 0.06
2371 C 60.865250082329794 70.1219764150003 100.87993752642191 C 0.0 **** -0.24
2372 H 61.8081677019855 69.64598771083847 100.60807925193927 H 0.0 **** 0.06
2373 H 61.035627432193166 71.1819543834868 101.07142396038131 H 0.0 **** 0.06
2374 H 60.46603166684616 69.64984484436691 101.77710759003557 H 0.0 **** 0.06
2375 H 60.153005527847085 70.00958584245359 100.06197308330465 H 0.0 **** 0.06
2376 C 60.89108948438809 21.505014737186627 47.75752597837355 C 0.0 **** -0.24
2377 H 60.28150198122228 21.70705254136402 48.638516078453286 H 0.0 **** 0.06
2378 H 60.89655559241544 20.43289192503181 47.558569758866675 H 0.0 **** 0.06
2379 H 61.910261679649466 21.847333025937246 47.93622668783275 H 0.0 **** 0.06
2380 H 60.47513160690761 22.032489585522967 46.8996361158413 H 0.0 **** 0.06
2381 C 57.274195688838645 25.698957463381365 52.380931497564404 C 0.0 **** -0.24
2382 H 57.30632380917128 25.61925955752814 53.46695023360263 H 0.0 **** 0.06
2383 H 57.56901287046399 24.748201971234412 51.937549583090856 H 0.0 **** 0.06
2384 H 57.96089122908218 26.480627065480412 52.05323851263955 H 0.0 **** 0.06
2385 H 56.261876755155455 25.949479577827205 52.06487810778435 H 0.0 **** 0.06
2386 C 55.2572227214047 34.83916591531124 75.12821688047586 C 0.0 **** -0.24
2387 H 55.87969691402202 35.560288417994116 74.59837543860135 H 0.0 **** 0.06
2388 H 55.376318962124145 33.854297473801125 74.67613725095728 H 0.0 **** 0.06
2389 H 54.213086969114244 35.14543566425863 75.06483628253945 H 0.0 **** 0.06
2390 H 55.560403726804964 34.79781063560347 76.17402408657932 H 0.0 **** 0.06
2391 C 99.00488692441752 56.64378865907781 83.37166873905954 C 0.0 **** -0.24
2392 H 99.47541522794941 55.68933396884586 83.13244255438792 H 0.0 **** 0.06
2393 H 98.56605788312297 57.06830909963065 82.46904967763362 H 0.0 **** 0.06
2394 H 99.7550752109799 57.3287591961772 83.76845797211308 H 0.0 **** 0.06
2395 H 98.22549510689782 56.48659967904672 84.11709595683902 H 0.0 **** 0.06
2396 C 8.947323680436483 54.275269543329046 44.620221407169076 C 0.0 **** -0.24
2397 H 9.758865876795568 54.9955511706834 44.73141248788891 H 0.0 **** 0.06
2398 H 9.256609525476051 53.484072078368285 43.93702481417592 H 0.0 **** 0.06
2399 H 8.067471173500266 54.77842364677093 44.21945060368907 H 0.0 **** 0.06
2400 H 8.708736645056135 53.844542628855294 45.59199206806394 H 0.0 **** 0.06
2401 C 38.709368967330384 45.408486543673064 4.78766450030561 C 0.0 **** -0.24
2402 H 38.11790743885453 44.51578863174723 4.58201072140146 H 0.0 **** 0.06
2403 H 38.36103897291065 45.869327165531445 5.712175660009535 H 0.0 **** 0.06
2404 H 38.59883933718933 46.11464308001433 3.96465728012555 H 0.0 **** 0.06
2405 H 39.75871550773095 45.13278876006012 4.8915071355946225 H 0.0 **** 0.06
2406 C 14.520803296640992 4.547824833327084 52.7825354931589 C 0.0 **** -0.24
2407 H 14.295530598809897 3.5953768512924 52.30386992015762 H 0.0 **** 0.06
2408 H 14.471934087294194 4.431458725240958 53.86535933749137 H 0.0 **** 0.06
2409 H 13.792714984054093 5.294632961238918 52.46407384904186 H 0.0 **** 0.06
2410 H 15.521192066339033 4.8706901847254045 52.49547108908521 H 0.0 **** 0.06
2411 C 52.09553186734817 108.49168869840385 87.80801217838659 C 0.0 **** -0.24
2412 H 51.827469639156305 107.55610394736743 88.29878864886224 H 0.0 **** 0.06
2413 H 51.77613592910586 108.45951181747164 86.7659653198492 H 0.0 **** 0.06
2414 H 53.176031397170675 108.62861193513726 87.85411573205796 H 0.0 **** 0.06
2415 H 51.60168437336142 109.32185677226673 88.31412818255652 H 0.0 **** 0.06
2416 C 24.15329525286819 109.28395179037699 4.332371245666181 C 0.0 **** -0.24
2417 H 24.108373215478764 108.50282777582149 5.091553066908588 H 0.0 **** 0.06
2418 H 23.82177503312829 110.22899413950219 4.7635812603855925 H 0.0 **** 0.06
2419 H 23.504338919666736 109.01741111711385 3.4979220269909064 H 0.0 **** 0.06
2420 H 25.178482655797097 109.38590579605207 3.9771419173358424 H 0.0 **** 0.06
2421 C 104.28975662293558 4.495049271471117 78.62559738955622 C 0.0 **** -0.24
2422 H 103.62591961390915 5.3573582842685425 78.69514142931246 H 0.0 **** 0.06
2423 H 103.73056728249853 3.6346883708057476 78.2575781693204 H 0.0 **** 0.06
2424 H 104.69547715354288 4.269315473497414 79.61206171438067 H 0.0 **** 0.06
2425 H 105.10637167979206 4.7196333069239955 77.93957947253085 H 0.0 **** 0.06
2426 C 42.38694481808998 74.95923626967155 72.88386248621966 C 0.0 **** -0.24
2427 H 43.041688071660914 75.77903647410626 72.58997206490899 H 0.0 **** 0.06
2428 H 41.696552070661106 75.30494682533043 73.65423958545394 H 0.0 **** 0.06
2429 H 42.986127717888444 74.13777865261824 73.27632771352876 H 0.0 **** 0.06
2430 H 41.82210940304001 74.61603163831073 72.01747675570904 H 0.0 **** 0.06
2431 C 64.72066271818235 56.48525281324486 97.45113819503314 C 0.0 **** -0.24
2432 H 64.231089207742 57.05029748304713 96.65886995914678 H 0.0 **** 0.06
2433 H 64.09604646203579 55.6382269664388 97.73388092436466 H 0.0 **** 0.06
2434 H 64.87150958433926 57.13106429663081 98.31757780947282 H 0.0 **** 0.06
2435 H 65.68579423888082 56.12420780830028 97.09596868948722 H 0.0 **** 0.06
2436 C 64.559307619568 51.00468024782225 33.05385626477485 C 0.0 **** -0.24
2437 H 64.07793120330888 51.95429062607303 33.28431131736457 H 0.0 **** 0.06
2438 H 65.63833404319628 51.14886436076887 32.995876372768464 H 0.0 **** 0.06
2439 H 64.19067375213922 50.632347812577734 32.097262601713965 H 0.0 **** 0.06
2440 H 64.33041005093385 50.28186310225772 33.83758776138055 H 0.0 **** 0.06
2441 C 11.947423285388567 86.89653626648041 70.06392991379602 C 0.0 **** -0.24
2442 H 11.420658682351615 86.55652812795526 69.1723289675756 H 0.0 **** 0.06
2443 H 12.155627706118764 87.96375803222435 69.97708843930752 H 0.0 **** 0.06
2444 H 12.885142394448138 86.35052088191696 70.16198985455497 H 0.0 **** 0.06
2445 H 11.328460696841375 86.71765784041838 70.94270606112104 H 0.0 **** 0.06
2446 C 79.00511258905605 49.63638564541219 80.31184399916486 C 0.0 **** -0.24
2447 H 79.86678205623762 49.93869245948588 79.7164432395837 H 0.0 **** 0.06
2448 H 79.3481092327164 49.15863433741663 81.22982425275129 H 0.0 **** 0.06
2449 H 78.39747091830044 48.93357929209975 79.7409923472803 H 0.0 **** 0.06
2450 H 78.40907047966616 50.514473389233785 80.55911190397103 H 0.0 **** 0.06
2451 C 72.88045393328366 57.531260334299645 30.540766116916075 C 0.0 **** -0.24
2452 H 72.56873063490491 58.57410877085886 30.48116357376088 H 0.0 **** 0.06
2453 H 73.87405809948325 57.42337545714963 30.104522605800014 H 0.0 **** 0.06
2454 H 72.17283828479191 56.90852261812762 29.99235238455948 H 0.0 **** 0.06
2455 H 72.90547711872387 57.218819984499646 31.584356822502286 H 0.0 **** 0.06
2456 C 73.42856878453787 58.715337724775864 96.65248473882792 C 0.0 **** -0.24
2457 H 73.48177679166562 59.19176624710191 97.63089899309887 H 0.0 **** 0.06
2458 H 73.458237988392 57.63277661479042 96.77378966319631 H 0.0 **** 0.06
2459 H 74.2750675549988 59.03692812236683 96.04580180956135 H 0.0 **** 0.06
2460 H 72.49862941980092 59.001967234437245 96.16001940763582 H 0.0 **** 0.06
2461 C 82.71142887176306 1.6740787655937623 4.202476071688793 C 0.0 **** -0.24
2462 H 83.09000362748147 0.7072171153985352 3.869578972501804 H 0.0 **** 0.06
2463 H 82.07485858212047 2.1013345817571576 3.4267444574114556 H 0.0 **** 0.06
2464 H 83.54994290600897 2.3446422192452587 4.3951122303772205 H 0.0 **** 0.06
2465 H 82.13350033667177 1.542909649811108 5.116969359318976 H 0.0 **** 0.06
2466 C 55.04020405946139 18.16759678971181 0.0021499455523183997 C 0.0 **** -0.24
2467 H 54.70045952186862 17.219560143349796 0.41987345194065995 H 0.0 **** 0.06
2468 H 54.30352100840358 18.534490782330494 -0.7125357277024875 H 0.0 **** 0.06
2469 H 55.99492535967022 18.02121865726258 -0.5019476236906826 H 0.0 **** 0.06
2470 H 55.16059583597317 18.89447122727651 0.8056293291689087 H 0.0 **** 0.06
2471 C 96.64368029598657 78.92249639478219 69.34304917639462 C 0.0 **** -0.24
2472 H 96.63590894714855 77.84147771922763 69.20096821869554 H 0.0 **** 0.06
2473 H 97.00735685997023 79.15398357147318 70.34436321026949 H 0.0 **** 0.06
2474 H 95.6328783085875 79.31136073595606 69.22284700449909 H 0.0 **** 0.06
2475 H 97.30001751913844 79.38090941418739 68.60309937929013 H 0.0 **** 0.06
2476 C 17.878293832543726 5.892412629218795 25.702600152929833 C 0.0 **** -0.24
2477 H 17.718390857611244 6.518039619709237 26.58054697499864 H 0.0 **** 0.06
2478 H 17.095353820151708 5.136182372552668 25.64817171760815 H 0.0 **** 0.06
2479 H 18.850579082250995 5.405746909270615 25.77635364668562 H 0.0 **** 0.06
2480 H 17.849541737573418 6.511723850083309 24.805922576721244 H 0.0 **** 0.06
2481 C 63.480585580018214 46.301299834031354 78.83364662734607 C 0.0 **** -0.24
2482 H 62.816607841351185 46.16073056699789 79.68638783074852 H 0.0 **** 0.06
2483 H 63.54267223296935 47.363380022450535 78.59277997890081 H 0.0 **** 0.06
2484 H 63.09009451418484 45.75607125732702 77.97431708428729 H 0.0 **** 0.06
2485 H 64.47329174101382 45.92579000249079 79.08164777623244 H 0.0 **** 0.06
2486 C 55.60622703678135 45.63058855844381 27.571186872025322 C 0.0 **** -0.24
2487 H 56.490301447974105 45.46303372152408 28.187237680070282 H 0.0 **** 0.06
2488 H 55.81752815072306 46.41019959965868 26.838514876432654 H 0.0 **** 0.06
2489 H 54.77537116487163 45.94105554995377 28.205059508563807 H 0.0 **** 0.06
2490 H 55.3438670925749 44.70720914008837 27.05471185176046 H 0.0 **** 0.06
2491 C 67.92079131649632 109.26202681797437 86.95743439512984 C 0.0 **** -0.24
2492 H 68.83722147226331 108.85859036802567 87.38897647766856 H 0.0 **** 0.06
2493 H 67.99058098724322 110.34892684970225 86.91006908152622 H 0.0 **** 0.06
2494 H 67.07129539932953 108.97894874745592 87.57956320864275 H 0.0 **** 0.06
2495 H 67.78584014870239 108.86166830464627 85.95281906714905 H 0.0 **** 0.06
2496 C 95.71073731338271 34.80945115306562 31.415219686877464 C 0.0 **** -0.24
2497 H 96.2174138711661 34.22253243049181 32.18072211321365 H 0.0 **** 0.06
2498 H 96.38190629172763 35.587743011441745 31.050463911999287 H 0.0 **** 0.06
2499 H 94.81800888746558 35.267691494695015 31.840614173094693 H 0.0 **** 0.06
2500 H 95.42640374114569 34.15841797470762 30.587907772266334 H 0.0 **** 0.06
2501 C 4.202555326956869 24.119446364506302 11.053157501537584 C 0.0 **** -0.24
2502 H 3.854985168646664 24.109902950374135 10.019797607034292 H 0.0 **** 0.06
2503 H 3.7957425723970886 24.992402327921127 11.56432874267584 H 0.0 **** 0.06
2504 H 5.291496482685886 24.1633592144031 11.069757123198286 H 0.0 **** 0.06
2505 H 3.8679265988652105 23.214114317833094 11.557735677660844 H 0.0 **** 0.06
2506 C 88.20308636990768 54.528050885435675 56.007133743127476 C 0.0 **** -0.24
2507 H 88.16327482871884 54.38512388902814 54.92702278848696 H 0.0 **** 0.06
2508 H 88.47890475482336 55.55960422182636 56.22666888415141 H 0.0 **** 0.06
2509 H 88.94510305863446 53.85360501151956 56.43519770899125 H 0.0 **** 0.06
2510 H 87.22518834189185 54.3130092019411 56.436774527370716 H 0.0 **** 0.06
2511 C 33.126468939042155 79.5417699272327 9.783015656860055 C 0.0 **** -0.24
2512 H 32.25451753005888 80.1225730422913 9.482327760878963 H 0.0 **** 0.06
2513 H 32.95984100888438 78.48994792038937 9.55028547317093 H 0.0 **** 0.06
2514 H 33.28641853161875 79.65628512852564 10.85474280860123 H 0.0 **** 0.06
2515 H 34.0040385471047 79.89901637667816 9.244136921688446 H 0.0 **** 0.06
2516 C 42.21949171008242 10.619287564674224 91.11629206630596 C 0.0 **** -0.24
2517 H 43.22934284187636 10.276362889870626 91.34049079209866 H 0.0 **** 0.06
2518 H 41.79067692292273 11.090554050232512 92.0009629291356 H 0.0 **** 0.06
2519 H 41.60354671466422 9.76930034030218 90.82197381631929 H 0.0 **** 0.06
2520 H 42.25418121467084 11.342794239801435 90.30052091951951 H 0.0 **** 0.06
2521 C 7.235964443593417 100.02452072613747 51.55540827559385 C 0.0 **** -0.24
2522 H 6.796065286224348 99.35600454030134 52.29534649187938 H 0.0 **** 0.06
2523 H 7.63013939968053 100.91000503700269 52.05486339036908 H 0.0 **** 0.06
2524 H 6.473097601404021 100.32214397099824 50.835620568001396 H 0.0 **** 0.06
2525 H 8.044056951023919 99.5092074485745 51.036282611920974 H 0.0 **** 0.06
2526 C 85.63130399097703 88.67080737318241 6.564377896213955 C 0.0 **** -0.24
2527 H 85.70142802049314 89.36404221323676 5.726750437859863 H 0.0 **** 0.06
2528 H 86.63171813022436 88.34616750006222 6.851700482004475 H 0.0 **** 0.06
2529 H 85.03830155422688 87.80484809283422 6.270893067199154 H 0.0 **** 0.06
2530 H 85.1540407888496 89.16912812110624 7.408062665588432 H 0.0 **** 0.06
2531 C 77.44809824106285 90.70779049908128 32.88119666347069 C 0.0 **** -0.24
2532 H 76.61091738173432 90.11301296961466 33.244413614316784 H 0.0 **** 0.06
2533 H 77.40226880433589 91.70528106969584 33.319035664303385 H 0.0 **** 0.06
2534 H 77.3946838888513 90.78477197348394 31.794927118443212 H 0.0 **** 0.06
2535 H 78.38452288932987 90.2280959835307 33.16641025681915 H 0.0 **** 0.06
2536 C 29.28080672286029 18.715977439649194 96.60192112719339 C 0.0 **** -0.24
2537 H 30.28140757925678 18.740730955621583 97.0332839798592 H 0.0 **** 0.06
2538 H 29.24791511818583 17.97149698741365 95.8054339572246 H 0.0 **** 0.06
2539 H 29.037098977645826 19.69678155083174 96.19378199110054 H 0.0 **** 0.06
2540 H 28.558634042174063 18.453614221914048 97.3752263104281 H 0.0 **** 0.06
2541 C 100.57069014190067 43.45195794984198 52.67319574098087 C 0.0 **** -0.24
2542 H 99.77836879563526 44.14704780169791 52.95345059360932 H 0.0 **** 0.06
2543 H 100.23067305373056 42.429452885530836 52.83441750015942 H 0.0 **** 0.06
2544 H 101.45345943791466 43.64349882241268 53.283889802578415 H 0.0 **** 0.06
2545 H 100.81956024360004 43.5911903849246 51.620540147347754 H 0.0 **** 0.06
2546 C 30.186819682323005 79.32254631986386 103.95193066033585 C 0.0 **** -0.24
2547 H 31.18445312268892 79.12427867206007 104.34377653749678 H 0.0 **** 0.06
2548 H 29.548987680155733 78.45615471471315 104.12924590404529 H 0.0 **** 0.06
2549 H 30.248924111171164 79.51471758557122 102.88074160938191 H 0.0 **** 0.06
2550 H 29.765594834168184 80.19315720031823 104.45407210018982 H 0.0 **** 0.06
2551 C 56.66333359851407 79.35897695471044 73.93351192593609 C 0.0 **** -0.24
2552 H 57.26608157192635 78.65296007423478 74.50539724029052 H 0.0 **** 0.06
2553 H 55.83980612644609 79.7177382003917 74.55228303685577 H 0.0 **** 0.06
2554 H 56.263845552937596 78.86126584212917 73.04944534429988 H 0.0 **** 0.06
2555 H 57.28281382623936 80.2018179057452 73.62785021176092 H 0.0 **** 0.06
2556 C 100.38387399007945 73.54471920587682 38.16201070257762 C 0.0 **** -0.24
2557 H 100.55076138764719 72.48886612477256 38.37600981017684 H 0.0 **** 0.06
2558 H 101.0564360988607 74.14894280949744 38.772206459704506 H 0.0 **** 0.06
2559 H 99.35153300379329 73.8037226626569 38.394032158266356 H 0.0 **** 0.06
2560 H 100.57893715335011 73.73670002431396 37.10748787197849 H 0.0 **** 0.06
2561 C 25.107182335405156 85.96877422277849 0.7722667175065681 C 0.0 **** -0.24
2562 H 24.52414091615333 86.46964869857439 1.5454104414703238 H 0.0 **** 0.06
2563 H 26.163805589805605 86.20369152966563 0.905930323129212 H 0.0 **** 0.06
2564 H 24.779366778307036 86.31068284424073 -0.20820718105971991 H 0.0 **** 0.06
2565 H 24.961608288238494 84.89101766091811 0.8489266702062537 H 0.0 **** 0.06
2566 C 11.935354648401443 55.32603283032296 26.104555107032652 C 0.0 **** -0.24
2567 H 11.641859914700149 55.86729824882241 25.20506896270186 H 0.0 **** 0.06
2568 H 11.309855891286588 55.642609918662515 26.939808382879193 H 0.0 **** 0.06
2569 H 12.980666638957587 55.53857139994159 26.331052310788564 H 0.0 **** 0.06
2570 H 11.810045347757239 54.25502911487325 25.941520097753838 H 0.0 **** 0.06
2571 C 40.26476103711414 50.12647949839561 106.20922795866866 C 0.0 **** -0.24
2572 H 39.27042639509437 50.56209355811421 106.11408746893946 H 0.0 **** 0.06
2573 H 40.21803630372367 49.25287663050392 106.85955293096873 H 0.0 **** 0.06
2574 H 40.94487148051076 50.862661815321076 106.6375200378399 H 0.0 **** 0.06
2575 H 40.62540050088218 49.82779641109789 105.22493617147845 H 0.0 **** 0.06
2576 C 27.45342610541536 77.40795288108575 100.11895326232616 C 0.0 **** -0.24
2577 H 28.108793521900424 77.42777996908788 100.98976103271315 H 0.0 **** 0.06
2578 H 26.700693338860532 76.62995338692582 100.24793357983822 H 0.0 **** 0.06
2579 H 28.043347298631858 77.19935807880746 99.22637837393728 H 0.0 **** 0.06
2580 H 26.963164469809698 78.37556528768751 100.01189024099 H 0.0 **** 0.06
2581 C 72.77518816433604 30.163948739890657 107.75974108693217 C 0.0 **** -0.24
2582 H 71.98531419164647 30.234895994352115 108.50751199155116 H 0.0 **** 0.06
2583 H 73.47667631103548 29.378326127624547 108.04595320921639 H 0.0 **** 0.06
2584 H 73.30156931314951 31.11606118086962 107.69503017894245 H 0.0 **** 0.06
2585 H 72.3370765819493 29.924339139796416 106.7909855968348 H 0.0 **** 0.06
2586 C 62.75759050803697 17.871184651472277 91.14877046459009 C 0.0 **** -0.24
2587 H 61.71272118131395 18.14197597693328 91.00658840245126 H 0.0 **** 0.06
2588 H 63.04118835292843 17.115647467711653 90.41474208869708 H 0.0 **** 0.06
2589 H 62.89567018516351 17.47083461742909 92.15342145538641 H 0.0 **** 0.06
2590 H 63.38319295734101 18.754550101324526 91.02077128910354 H 0.0 **** 0.06
2591 C 56.16018563884302 0.8279815860854569 52.13123637143579 C 0.0 **** -0.24
2592 H 56.249921474505676 1.5374833268540442 52.95412428356269 H 0.0 **** 0.06
2593 H 55.23397073854852 0.26311311367544477 52.23809287577194 H 0.0 **** 0.06
2594 H 57.00859099840852 0.14346936110837305 52.148327847742365 H 0.0 **** 0.06
2595 H 56.148909561408296 1.368592625508768 51.18460375741009 H 0.0 **** 0.06
2596 C 81.96105288121896 40.13307231199815 76.7753290358341 C 0.0 **** -0.24
2597 H 82.22582197077844 39.07771476548629 76.84568915758088 H 0.0 **** 0.06
2598 H 81.17814214594085 40.3589961985997 77.49956306576236 H 0.0 **** 0.06
2599 H 81.6002527217369 40.350252130302295 75.76991871770052 H 0.0 **** 0.06
2600 H 82.83886157538288 40.74276933952291 76.98656847921382 H 0.0 **** 0.06
2601 C 15.961226649936748 56.56533295085751 104.22385066587557 C 0.0 **** -0.24
2602 H 16.96291252346566 56.37119543968498 104.60736568720537 H 0.0 **** 0.06
2603 H 16.01173494210809 57.32893122256229 103.44645667452647 H 0.0 **** 0.06
2604 H 15.323070735903457 56.91490135196932 105.03494847428482 H 0.0 **** 0.06
2605 H 15.548351369268403 55.64810163638282 103.80453047161123 H 0.0 **** 0.06
2606 C 63.13037106117048 71.03073817785486 90.75050750845475 C 0.0 **** -0.24
2607 H 62.70360061241769 70.56090990935161 91.63713153123618 H 0.0 **** 0.06
2608 H 63.35969617583504 70.26450395681235 90.00884793318238 H 0.0 **** 0.06
2609 H 64.04434367701998 71.55746304640618 91.02275122599156 H 0.0 **** 0.06
2610 H 62.414143860717104 71.73729904341354 90.33285214917856 H 0.0 **** 0.06
2611 C 35.030339450804945 38.50835597976325 41.06034885152479 C 0.0 **** -0.24
2612 H 35.592589793851545 37.668028849520624 41.46703125309563 H 0.0 **** 0.06
2613 H 34.37520743276673 38.9143681663997 41.83218300401683 H 0.0 **** 0.06
2614 H 34.430699452048316 38.16931187147429 40.21579531231896 H 0.0 **** 0.06
2615 H 35.72304087202855 39.28177381192697 40.72736781732061 H 0.0 **** 0.06
2616 C 64.99478071873723 63.268656089243905 74.14684470164308 C 0.0 **** -0.24
2617 H 65.76300999621407 62.536647004443154 73.8983689659165 H 0.0 **** 0.06
2618 H 64.7817775682075 63.22244682657235 75.21517523596107 H 0.0 **** 0.06
2619 H 64.08776579211975 63.04742404072054 73.58510099781795 H 0.0 **** 0.06
2620 H 65.34795598132496 64.26642467654302 73.88923309809233 H 0.0 **** 0.06
2621 C 94.47508063947066 104.56770029536003 30.703533945546837 C 0.0 **** -0.24
2622 H 95.05739008775498 105.29395148136778 31.27141571045007 H 0.0 **** 0.06
2623 H 93.59086033484448 104.28598568412248 31.27418006995231 H 0.0 **** 0.06
2624 H 95.08316114872207 103.68258636231553 30.514912141455113 H 0.0 **** 0.06
2625 H 94.17102282972559 105.00851477501627 29.754323664386163 H 0.0 **** 0.06
2626 C 42.31710867176372 95.81032897464814 1.89756334600321 C 0.0 **** -0.24
2627 H 41.50607515753864 95.5832209247318 1.2061211783353087 H 0.0 **** 0.06
2628 H 42.032985470040124 96.6533094184392 2.5276416914402375 H 0.0 **** 0.06
2629 H 43.21490690703165 96.06439387101248 1.3333646845335352 H 0.0 **** 0.06
2630 H 42.515416107745715 94.94008664449423 2.5232063577357167 H 0.0 **** 0.06
2631 C 61.544286127042625 8.051475382599008 22.91219891065973 C 0.0 **** -0.24
2632 H 61.08814707697226 7.207248492989152 22.394844221400156 H 0.0 **** 0.06
2633 H 61.16123657839137 8.103104072382038 23.931320713187088 H 0.0 **** 0.06
2634 H 61.30092531082448 8.974456852761023 22.38443615279177 H 0.0 **** 0.06
2635 H 62.62643075906831 7.920916584709374 22.93624377542095 H 0.0 **** 0.06
2636 C 56.4297702013713 49.96446693367058 105.27299510914648 C 0.0 **** -0.24
2637 H 56.01616671545628 50.93335885324075 105.55342041876315 H 0.0 **** 0.06
2638 H 55.81996206193486 49.170648068802834 105.70457173409147 H 0.0 **** 0.06
2639 H 57.450695745010364 49.883743493080964 105.6469262776462 H 0.0 **** 0.06
2640 H 56.43259212948101 49.871723651293195 104.18650787939782 H 0.0 **** 0.06
2641 C 103.6597271712175 53.07184165931382 54.155887976534075 C 0.0 **** -0.24
2642 H 103.71484184626657 54.0630442856135 53.70773022453858 H 0.0 **** 0.06
2643 H 102.83003223962031 52.51894684709986 53.714821762458854 H 0.0 **** 0.06
2644 H 103.5022845574848 53.16838307030596 55.2307607035888 H 0.0 **** 0.06
2645 H 104.59239283338216 52.537677444810214 53.97226845937354 H 0.0 **** 0.06
2646 C 103.06267163604069 81.19626546889708 56.6480060761637 C 0.0 **** -0.24
2647 H 102.41675243284269 81.82921938896177 56.039320227982046 H 0.0 **** 0.06
2648 H 103.46112549584996 80.38778270443275 56.035020859474876 H 0.0 **** 0.06
2649 H 102.48632191700663 80.77763298049504 57.4730591501726 H 0.0 **** 0.06
2650 H 103.88482387860748 81.79190705199204 57.044834163629886 H 0.0 **** 0.06
2651 C 47.24717943378355 5.576918313589061 0.6907098714327731 C 0.0 **** -0.24
2652 H 47.367457472090535 4.749182159133696 1.3886788658265914 H 0.0 **** 0.06
2653 H 47.829676331505624 6.431341337287563 1.0363374564959713 H 0.0 **** 0.06
2654 H 46.19473650692842 5.854267320926866 0.634219802495636 H 0.0 **** 0.06
2655 H 47.59662755020976 5.274276625136423 -0.29630722283570776 H 0.0 **** 0.06
2656 C 62.39340827634186 73.39627309855128 93.59373735980964 C 0.0 **** -0.24
2657 H 61.35046279843152 73.27277609455275 93.30106351547852 H 0.0 **** 0.06
2658 H 62.45035265363356 73.5645771072361 94.66944310998947 H 0.0 **** 0.06
2659 H 62.81839202169192 74.25130525046016 93.06913321690541 H 0.0 **** 0.06
2660 H 62.95151363474065 72.49643163764208 93.3360312071595 H 0.0 **** 0.06
2661 C 71.75122281544697 99.78426102832594 79.76186667161704 C 0.0 **** -0.24
2662 H 72.00237436066848 98.73120502515745 79.88980689552841 H 0.0 **** 0.06
2663 H 71.9251976681278 100.31517419076702 80.69779866512829 H 0.0 **** 0.06
2664 H 70.70225729394747 99.8763862402161 79.48054300642781 H 0.0 **** 0.06
2665 H 72.37608745409437 100.21377346472075 78.97848553303226 H 0.0 **** 0.06
2666 C 3.093422075756436 34.24426666940904 33.994007880215094 C 0.0 **** -0.24
2667 H 4.160925393274923 34.082303201906015 33.84321910180091 H 0.0 **** 0.06
2668 H 2.573673996559492 34.14900035602539 33.03970442412711 H 0.0 **** 0.06
2669 H 2.931895068668098 35.24351225922467 34.39801653615888 H 0.0 **** 0.06
2670 H 2.7080474573492523 33.50246745915796 34.693599955843865 H 0.0 **** 0.06
2671 C 87.1449534355132 83.15870142817658 46.23913936629276 C 0.0 **** -0.24
2672 H 87.6086492661156 82.40035001983097 45.60752389980976 H 0.0 **** 0.06
2673 H 86.06042419839864 83.07572474737685 46.16880493152311 H 0.0 **** 0.06
2674 H 87.45627863019809 84.14832119534677 45.90569366022163 H 0.0 **** 0.06
2675 H 87.45545384530436 83.00866310545075 47.27355261580155 H 0.0 **** 0.06
2676 C 55.86236581276529 51.067174686957706 42.42930436211054 C 0.0 **** -0.24
2677 H 56.30849258482456 50.73739520597483 43.36733960047097 H 0.0 **** 0.06
2678 H 56.24987881722464 50.460084784872315 41.6103878116603 H 0.0 **** 0.06
2679 H 56.11237500632018 52.11354090743175 42.25643497282202 H 0.0 **** 0.06
2680 H 54.778553919866056 50.95631952250287 42.48269658847592 H 0.0 **** 0.06
2681 C 7.396759186999873 66.16239465353488 57.17858905327785 C 0.0 **** -0.24
2682 H 8.470453473318571 66.00098881274727 57.270509815705125 H 0.0 **** 0.06
2683 H 6.929349746882565 66.0620702995206 58.1587922123313 H 0.0 **** 0.06
2684 H 6.975187386452944 65.42355139151033 56.49695528821234 H 0.0 **** 0.06
2685 H 7.212783846001969 67.16360838285709 56.787884669766136 H 0.0 **** 0.06
2686 C 102.82468365935131 18.086371428858143 87.5304639934952 C 0.0 **** -0.24
2687 H 103.1533377801652 17.23858326490128 88.13116558703565 H 0.0 **** 0.06
2688 H 102.24563762661631 17.725893435509533 86.67994352562002 H 0.0 **** 0.06
2689 H 103.69417990609088 18.636547076343504 87.17136547805114 H 0.0 **** 0.06
2690 H 102.20425265265425 18.744858446753852 88.13909359232933 H 0.0 **** 0.06
2691 C 9.361085281787155 97.44792015003588 48.447902842215264 C 0.0 **** -0.24
2692 H 9.545744245527274 98.49850211158979 48.66976606082041 H 0.0 **** 0.06
2693 H 8.34920554378185 97.18387836371303 48.75796919962111 H 0.0 **** 0.06
2694 H 10.078785174540272 96.83019961351455 48.98705207650906 H 0.0 **** 0.06
2695 H 9.468296246577268 97.27878368716179 47.3760728935399 H 0.0 **** 0.06
2696 C 25.95456913439807 66.27792241748877 73.10827838882841 C 0.0 **** -0.24
2697 H 26.736660585793032 66.89062990880544 73.55716951991315 H 0.0 **** 0.06
2698 H 25.19929212257432 66.92406775399203 72.659888361654 H 0.0 **** 0.06
2699 H 25.49296795442669 65.65822519876312 73.87728128726121 H 0.0 **** 0.06
2700 H 26.389657220873175 65.63990383953082 72.34004580363558 H 0.0 **** 0.06
2701 C 2.5255795350402224 89.41058043081551 85.26981998485513 C 0.0 **** -0.24
2702 H 1.7498923935660855 88.67997715422958 85.5003629714837 H 0.0 **** 0.06
2703 H 2.106121058582545 90.2019938421742 84.64840776475705 H 0.0 **** 0.06
2704 H 3.3386568589358205 88.92070628733188 84.73479635786077 H 0.0 **** 0.06
2705 H 2.906505544397092 89.83984508994061 86.19652218188548 H 0.0 **** 0.06
2706 C 105.59862133347887 62.85050246319109 30.627025114339993 C 0.0 **** -0.24
2707 H 104.96611066065961 62.53805929382989 29.79630119455785 H 0.0 **** 0.06
2708 H 105.64962902465115 62.049576511365956 31.365949107035718 H 0.0 **** 0.06
2709 H 105.17747102447525 63.74364156074468 31.08816357715169 H 0.0 **** 0.06
2710 H 106.60119913620036 63.070316350664115 30.25859276984528 H 0.0 **** 0.06
2711 C 50.314537690119934 27.23288744367312 75.0103840518182 C 0.0 **** -0.24
2712 H 50.6126287236283 27.99284504306678 74.28784621034644 H 0.0 **** 0.06
2713 H 51.0971615616606 27.11973448176036 75.76171161012414 H 0.0 **** 0.06
2714 H 50.16275876472676 26.284075704714212 74.49689294591049 H 0.0 **** 0.06
2715 H 49.3863379154091 27.537755598224464 75.49456310949365 H 0.0 **** 0.06
2716 C 60.8155466492679 3.3444539441111374 76.40749692020972 C 0.0 **** -0.24
2717 H 61.36925375754214 2.4066182159923573 76.36113609780995 H 0.0 **** 0.06
2718 H 61.501084835578865 4.16075049266761 76.63571191949205 H 0.0 **** 0.06
2719 H 60.05577501004535 3.2797363397866164 77.18648307391356 H 0.0 **** 0.06
2720 H 60.334752654031774 3.530343650642548 75.44700595674942 H 0.0 **** 0.06
2721 C 78.18627992494538 46.32837202199346 8.539332125809096 C 0.0 **** -0.24
2722 H 77.21662427841335 46.520415382440035 8.079760567168307 H 0.0 **** 0.06
2723 H 78.890687051068 45.994638887686136 7.775993645431811 H 0.0 **** 0.06
2724 H 78.08106894443853 45.55510403354526 9.300400457961018 H 0.0 **** 0.06
2725 H 78.55689438592722 47.24417661361363 9.000051795220429 H 0.0 **** 0.06
2726 C 104.45193285684252 46.29563508419602 84.28725404310437 C 0.0 **** -0.24
2727 H 104.52448219678672 46.9938343525547 85.12123732550867 H 0.0 **** 0.06
2728 H 104.56330365847475 46.837986487513206 83.34821344553878 H 0.0 **** 0.06
2729 H 103.47995347644593 45.80274809647142 84.30932747802727 H 0.0 **** 0.06
2730 H 105.24022200904778 45.54759235435179 84.37158089192073 H 0.0 **** 0.06
2731 C 56.14260903329449 75.42484885395696 99.25458026398591 C 0.0 **** -0.24
2732 H 56.83447153205165 74.91892620108032 98.58242388367098 H 0.0 **** 0.06
2733 H 55.84875153663222 76.38037673443063 98.82041444062266 H 0.0 **** 0.06
2734 H 56.63000046856337 75.59658206948791 100.21505467606364 H 0.0 **** 0.06
2735 H 55.25939251543531 74.80444336527097 99.40104274951557 H 0.0 **** 0.06
2736 C 80.83457370319371 41.61458883767968 54.12006652875698 C 0.0 **** -0.24
2737 H 80.8201873619754 41.4233535363682 55.19348530533702 H 0.0 **** 0.06
2738 H 79.8728170455062 41.333128239482356 53.689034175593065 H 0.0 **** 0.06
2739 H 81.62702304692516 41.026565778440755 53.65656499127181 H 0.0 **** 0.06
2740 H 81.01635134760102 42.67440949698585 53.94190428536609 H 0.0 **** 0.06
2741 C 58.93643655113283 86.39675163983661 84.08255816699557 C 0.0 **** -0.24
2742 H 59.98898468259651 86.5933606274178 84.29015186732471 H 0.0 **** 0.06
2743 H 58.37677828853709 87.3305958099609 84.13296067436949 H 0.0 **** 0.06
2744 H 58.545546639148434 85.69791879023057 84.82195146210194 H 0.0 **** 0.06
2745 H 58.83665742602906 85.96654415603287 83.08660820793776 H 0.0 **** 0.06
2746 C 107.2840976480665 18.95576815754228 1.9207437523097042 C 0.0 **** -0.24
2747 H 107.5918440898978 18.11606639096425 1.2976813171831623 H 0.0 **** 0.06
2748 H 106.49080064070856 19.50925120509463 1.4170154808228403 H 0.0 **** 0.06
2749 H 108.13525530619391 19.613836799783684 2.0900273553872353 H 0.0 **** 0.06
2750 H 106.91712191111984 18.58219018160061 2.876478555461688 H 0.0 **** 0.06
2751 C 73.70257781579244 105.69540308706033 10.7956136336898 C 0.0 **** -0.24
2752 H 73.52606103739117 105.79569435878095 9.724178486699769 H 0.0 **** 0.06
2753 H 74.0719950382948 106.6412347424699 11.192903411448022 H 0.0 **** 0.06
2754 H 74.44368913147639 104.91419123521129 10.969621904372353 H 0.0 **** 0.06
2755 H 72.77048043730952 105.42990564199589 11.293516505928704 H 0.0 **** 0.06
2756 C 27.951289134146187 0.5058675432617861 71.10700898016853 C 0.0 **** -0.24
2757 H 28.798266544964285 -0.16735916732227452 71.23636026544284 H 0.0 **** 0.06
2758 H 27.786115240590362 0.679716294250909 70.04356648327533 H 0.0 **** 0.06
2759 H 28.161753952948494 1.4538569958812104 71.60168490286668 H 0.0 **** 0.06
2760 H 27.060177876885618 0.056643304787769466 71.54461154653944 H 0.0 **** 0.06
2761 C 45.96798473329284 8.401053767687657 53.160539967300586 C 0.0 **** -0.24
2762 H 45.02222656208332 7.931623612406412 53.431587107300004 H 0.0 **** 0.06
2763 H 46.072480815081065 9.343861599963006 53.69879897910049 H 0.0 **** 0.06
2764 H 45.98456890570998 8.591945824677993 52.08780845957185 H 0.0 **** 0.06
2765 H 46.79138485393639 7.7385515148968125 53.425080468223236 H 0.0 **** 0.06
2766 C 87.98268099756132 72.6711161036489 59.6008887006667 C 0.0 **** -0.24
2767 H 88.10126393155578 72.47746239488671 58.535407121339745 H 0.0 **** 0.06
2768 H 87.01367567565659 73.13834704819308 59.77850823415193 H 0.0 **** 0.06
2769 H 88.77522982796302 73.33785855206384 59.940042899659375 H 0.0 **** 0.06
2770 H 88.03847908081093 71.73099837629456 60.14878916196824 H 0.0 **** 0.06
2771 C 102.10424450488188 73.04199467049666 11.001443741471888 C 0.0 **** -0.24
2772 H 101.96795650355801 72.8515381204008 12.06582929098984 H 0.0 **** 0.06
2773 H 101.6134167373009 73.97905070286248 10.73515645925329 H 0.0 **** 0.06
2774 H 101.6664248548816 72.22643286651396 10.426552803346482 H 0.0 **** 0.06
2775 H 103.16861721790997 73.11406631709896 10.778362759443766 H 0.0 **** 0.06
2776 C 14.346655343463112 30.997739023837013 18.321463466996562 C 0.0 **** -0.24
2777 H 13.53897565391452 30.380940725206642 17.92690278992299 H 0.0 **** 0.06
2778 H 14.194330031931884 31.154487159669543 19.38958039904375 H 0.0 **** 0.06
2779 H 14.351447934563055 31.959758234010096 17.80966685818646 H 0.0 **** 0.06
2780 H 15.29952330679663 30.49526116914312 18.160198782143652 H 0.0 **** 0.06
2781 C 76.07313475950066 9.083599005694097 43.914175997480555 C 0.0 **** -0.24
2782 H 75.38814401700824 9.875871355270476 44.21861813238411 H 0.0 **** 0.06
2783 H 77.10138151767751 9.421525374601941 44.04559950459475 H 0.0 **** 0.06
2784 H 75.90125331528259 8.839247015366084 42.86600397135646 H 0.0 **** 0.06
2785 H 75.89919180684234 8.198912823506902 44.52624373262876 H 0.0 **** 0.06
2786 C 109.35031573321007 47.84595543917198 6.125334571065423 C 0.0 **** -0.24
2787 H 109.95908586174058 48.21154630385884 5.299325549365193 H 0.0 **** 0.06
2788 H 108.29833065432796 47.86461361936887 5.837313578538954 H 0.0 **** 0.06
2789 H 109.49992001877492 48.48264793482113 6.997003618652087 H 0.0 **** 0.06
2790 H 109.64283219462061 46.82368107432934 6.367532905717923 H 0.0 **** 0.06
2791 C 29.72622007047871 47.20632644277076 101.08821344817042 C 0.0 **** -0.24
2792 H 30.248348161080123 47.80233654290083 101.83745707016544 H 0.0 **** 0.06
2793 H 30.377165158781736 46.39968201039542 100.74945536816267 H 0.0 **** 0.06
2794 H 29.458792234998327 47.83882586552639 100.24164178991481 H 0.0 **** 0.06
2795 H 28.821400406093304 46.78346939186535 101.52612563127406 H 0.0 **** 0.06
2796 C 108.99630787613961 64.98656914527999 94.92339222410469 C 0.0 **** -0.24
2797 H 109.9448136815974 64.50209081014467 95.15450517518451 H 0.0 **** 0.06
2798 H 108.9952986920461 65.99776910142572 95.33160713745032 H 0.0 **** 0.06
2799 H 108.18007566191585 64.41507939568916 95.3661486005503 H 0.0 **** 0.06
2800 H 108.86406844252048 65.03062700797147 93.84290330352857 H 0.0 **** 0.06
2801 C 2.252184499034427 26.560216047739516 75.5910977872298 C 0.0 **** -0.24
2802 H 3.2157632879884286 26.669654545487617 75.09296638963495 H 0.0 **** 0.06
2803 H 1.736112766853302 27.520590287113635 75.59718455126618 H 0.0 **** 0.06
2804 H 2.409320286179045 26.225389984408793 76.6167222866568 H 0.0 **** 0.06
2805 H 1.6488340851449994 25.82632804777454 75.05716764821287 H 0.0 **** 0.06
2806 C 2.0640713881503814 53.37962647496741 67.3543087852803 C 0.0 **** -0.24
2807 H 1.000904963530445 53.592883705753444 67.24487285638578 H 0.0 **** 0.06
2808 H 2.3035302347440165 52.44897486938024 66.8398539453724 H 0.0 **** 0.06
2809 H 2.308073830211015 53.283632256935505 68.41196166497087 H 0.0 **** 0.06
2810 H 2.6440564716707797 54.19436403069485 66.92022725455614 H 0.0 **** 0.06
2811 C 79.25885923682155 62.052159784730435 2.612340221084839 C 0.0 **** -0.24
2812 H 80.03623325220582 61.627309424464755 3.248120520983358 H 0.0 **** 0.06
2813 H 79.12234746484002 63.10596372958469 2.861353607692763 H 0.0 **** 0.06
2814 H 78.32406686048242 61.51598781927623 2.7747210924306707 H 0.0 **** 0.06
2815 H 79.5545274793298 61.96069210246611 1.5674576160665623 H 0.0 **** 0.06
2816 C 35.19370016044252 26.325772872188622 90.99318975512591 C 0.0 **** -0.24
2817 H 35.370066871166216 26.84673590318735 91.93417489227585 H 0.0 **** 0.06
2818 H 35.99501110101926 25.606787393452606 90.81986220712616 H 0.0 **** 0.06
2819 H 35.171578011806474 27.049286879123315 90.176765266779 H 0.0 **** 0.06
2820 H 34.238467956184905 25.802785979654402 91.04033721752415 H 0.0 **** 0.06
2821 C 28.505684655167414 20.070540337640928 108.4304408889981 C 0.0 **** -0.24
2822 H 28.59656116254388 20.328116540545242 109.48656814824685 H 0.0 **** 0.06
2823 H 28.789636548243777 20.928556185617623 107.82194043044964 H 0.0 **** 0.06
2824 H 27.474805180490478 19.793749433561675 108.21144318392541 H 0.0 **** 0.06
2825 H 29.1628816540466 19.230081900314598 108.2049647203738 H 0.0 **** 0.06
2826 C 74.48773581417957 83.66952722620309 7.451767368012327 C 0.0 **** -0.24
2827 H 74.67379258871102 83.71011751973037 6.379002722091741 H 0.0 **** 0.06
2828 H 73.57918289528496 84.22616872886825 7.684289683780662 H 0.0 **** 0.06
2829 H 75.33013205231802 84.1107395269614 7.98420046187249 H 0.0 **** 0.06
2830 H 74.3671910325342 82.63077490087504 7.761154426743246 H 0.0 **** 0.06
2831 C 60.22249233441639 74.39043181193915 79.82939406463602 C 0.0 **** -0.24
2832 H 60.62780799096775 74.63002706385328 80.81282077843198 H 0.0 **** 0.06
2833 H 59.13536549714601 74.33452732940003 79.88794041504102 H 0.0 **** 0.06
2834 H 60.61899136860043 73.4313316705252 79.4965259893931 H 0.0 **** 0.06
2835 H 60.508825883742986 75.16865384796813 79.12050380833402 H 0.0 **** 0.06
2836 C 73.67571055482279 54.368864716484495 91.37689978026563 C 0.0 **** -0.24
2837 H 72.85848338518485 54.402825947485894 90.65626802208362 H 0.0 **** 0.06
2838 H 73.28897314437279 54.062763853739966 92.34954166141267 H 0.0 **** 0.06
2839 H 74.12891638314136 55.35595486845955 91.45978624437856 H 0.0 **** 0.06
2840 H 74.42539247915028 53.651114036841705 91.04200163381131 H 0.0 **** 0.06
2841 C 68.28258699501652 56.80965862776952 43.44067237085417 C 0.0 **** -0.24
2842 H 69.06618595509252 57.567133966647646 43.46550235557001 H 0.0 **** 0.06
2843 H 68.73103671864254 55.81961655693618 43.515733785232726 H 0.0 **** 0.06
2844 H 67.73036551364544 56.889823392462574 42.50388060071768 H 0.0 **** 0.06
2845 H 67.60140297983605 56.96549630790395 44.278169097355885 H 0.0 **** 0.06
2846 C 23.129731163403676 68.4435874650562 8.085232056012316 C 0.0 **** -0.24
2847 H 22.930320064994987 69.03424615797765 8.979629215297663 H 0.0 **** 0.06
2848 H 22.184269944834398 68.15979367682175 7.6210467564971935 H 0.0 **** 0.06
2849 H 23.684900544627 67.54687910953542 8.357668719381834 H 0.0 **** 0.06
2850 H 23.716111944082343 69.03514463447357 7.382748330169022 H 0.0 **** 0.06
2851 C 37.90782073624797 57.53785766471998 107.84628226792128 C 0.0 **** -0.24
2852 H 37.570118804505 57.749119400217864 106.83113564244765 H 0.0 **** 0.06
2853 H 37.09811330535143 57.74025526643419 108.54770856016576 H 0.0 **** 0.06
2854 H 38.7624719357396 58.17091229741476 108.08324186893863 H 0.0 **** 0.06
2855 H 38.199824250253926 56.49005423871438 107.92000258188331 H 0.0 **** 0.06
2856 C 18.105507552881278 4.050962646464086 20.422127369268992 C 0.0 **** -0.24
2857 H 18.721665534328764 4.327883482521258 19.56732395909131 H 0.0 **** 0.06
2858 H 17.100698333253206 3.8021964044861534 20.07997748189058 H 0.0 **** 0.06
2859 H 18.055412500874525 4.887083609347997 21.12021976653284 H 0.0 **** 0.06
2860 H 18.544414388209816 3.1876078904939504 20.9213437988368 H 0.0 **** 0.06
2861 C 42.279898898937745 36.23921359776 100.10700985188159 C 0.0 **** -0.24
2862 H 42.777623496055526 35.39200434164155 99.63388143806412 H 0.0 **** 0.06
2863 H 41.282552113163064 36.357103741174114 99.68181918959854 H 0.0 **** 0.06
2864 H 42.85982619157974 37.145328653541185 99.93108491578963 H 0.0 **** 0.06
2865 H 42.200054983954516 36.06122563949219 101.17916419755662 H 0.0 **** 0.06
2866 C 85.42155853211908 37.69161917453428 109.35968074292676 C 0.0 **** -0.24
2867 H 85.41745865630625 37.36527927222906 108.3201490490331 H 0.0 **** 0.06
2868 H 84.41432852899979 37.61431668444975 109.76998893775384 H 0.0 **** 0.06
2869 H 85.75763428809171 38.72718296962856 109.41377743901116 H 0.0 **** 0.06
2870 H 86.09826172343132 37.05968203730974 109.93575628410632 H 0.0 **** 0.06
2871 C 99.19781460901243 104.76356235734514 98.69712570916391 C 0.0 **** -0.24
2872 H 98.6696331382575 104.33485956858775 99.54809805006536 H 0.0 **** 0.06
2873 H 99.49421545254677 103.96608554690224 98.01434089325534 H 0.0 **** 0.06
2874 H 100.08617191212056 105.2893249822475 99.04848128970963 H 0.0 **** 0.06
2875 H 98.54388154359435 105.46267120872952 98.17703434216702 H 0.0 **** 0.06
2876 C 13.779492850470213 88.70719037166052 90.97697319330274 C 0.0 **** -0.24
2877 H 14.069525122253712 89.68036867774286 91.37310953156805 H 0.0 **** 0.06
2878 H 14.668521396120354 88.0921252881605 90.83909680316367 H 0.0 **** 0.06
2879 H 13.277006781273254 88.84027265984203 90.01961718961326 H 0.0 **** 0.06
2880 H 13.10307894948966 88.21727610458943 91.67815079743048 H 0.0 **** 0.06
2881 C 42.354069905554695 68.31305802700984 66.64173123056099 C 0.0 **** -0.24
2882 H 42.965702725404924 68.1084932142604 67.52017601421261 H 0.0 **** 0.06
2883 H 42.71007115029005 67.71379320002863 65.80298360729603 H 0.0 **** 0.06
2884 H 42.42511953298941 69.3714207473408 66.3890296645584 H 0.0 **** 0.06
2885 H 41.315386213534254 68.0585249464095 66.8547356361766 H 0.0 **** 0.06
2886 C 17.21178763650812 43.525375953210144 38.403452494434475 C 0.0 **** -0.24
2887 H 17.66500248851235 44.13174039691607 39.18758015166367 H 0.0 **** 0.06
2888 H 16.902036434827014 44.168303325543675 37.580315655226855 H 0.0 **** 0.06
2889 H 16.342146898949036 43.004397336056385 38.80473298344805 H 0.0 **** 0.06
2890 H 17.937868976977036 42.79566626131844 38.042609767446436 H 0.0 **** 0.06
2891 C 110.68613902720696 27.108269623399508 19.91829868762762 C 0.0 **** -0.24
2892 H 110.35799260686929 28.01239630834003 19.40465714050681 H 0.0 **** 0.06
2893 H 111.76795195655788 27.012167447442124 19.826326490819916 H 0.0 **** 0.06
2894 H 110.20390572111101 26.240566602984245 19.467878605522706 H 0.0 **** 0.06
2895 H 110.41361466512727 27.170045548071272 20.972006404799426 H 0.0 **** 0.06
2896 C 10.645194076316557 70.49990506757052 79.73446290008951 C 0.0 **** -0.24
2897 H 10.739637068646829 69.79539862011615 80.56061779010759 H 0.0 **** 0.06
2898 H 11.611208512070789 70.97023219240896 79.54615112314389 H 0.0 **** 0.06
2899 H 9.912270811942193 71.26433500051701 79.99081237797304 H 0.0 **** 0.06
2900 H 10.319126039860834 69.96879690294952 78.8406097533051 H 0.0 **** 0.06
2901 C 56.255803940960334 35.851217081358044 105.72717168784641 C 0.0 **** -0.24
2902 H 56.47135145097525 34.80281981704445 105.52197139815317 H 0.0 **** 0.06
2903 H 57.19131195323669 36.404243299615246 105.81739665957036 H 0.0 **** 0.06
2904 H 55.693628775942386 35.93170371564415 106.6577917719639 H 0.0 **** 0.06
2905 H 55.66596313344229 36.26756934251381 104.9098171687412 H 0.0 **** 0.06
2906 C 13.91280115009424 26.8544726564528 101.72702641436561 C 0.0 **** -0.24
2907 H 14.915702921510999 26.93649925596327 101.30732481183202 H 0.0 **** 0.06
2908 H 13.8924012117254 26.052643622004155 102.46508045856933 H 0.0 **** 0.06
2909 H 13.202769095149648 26.634846377529755 100.93007755748226 H 0.0 **** 0.06
2910 H 13.642051987945734 27.795548960877 102.2050525421636 H 0.0 **** 0.06
2911 C 94.27040690664019 7.876363344823858 94.13362076264008 C 0.0 **** -0.24
2912 H 94.14654975212584 6.90944920176247 93.64719490474651 H 0.0 **** 0.06
2913 H 93.3140672247357 8.202105317465453 94.54388452837 H 0.0 **** 0.06
2914 H 94.62038800929423 8.607508411731885 93.40487811130654 H 0.0 **** 0.06
2915 H 94.99983888927859 7.787536785183249 94.93825765065664 H 0.0 **** 0.06
2916 C 55.57309957375501 54.89300670083628 69.85571788922346 C 0.0 **** -0.24
2917 H 56.08938488593673 55.69537023403467 69.3273278431775 H 0.0 **** 0.06
2918 H 56.18276023345579 54.56131066396421 70.69666282847447 H 0.0 **** 0.06
2919 H 55.40537943512858 54.058835461674676 69.17535477407336 H 0.0 **** 0.06
2920 H 54.61491591429185 55.26062781086364 70.2233107893494 H 0.0 **** 0.06
2921 C 97.08743923414187 70.70662019550605 40.06681401092925 C 0.0 **** -0.24
2922 H 96.93052395287668 70.42275370248797 41.10817620422159 H 0.0 **** 0.06
2923 H 96.26184346927022 70.33384624683612 39.4615207844723 H 0.0 **** 0.06
2924 H 98.0238648519499 70.27707436948867 39.711350707530244 H 0.0 **** 0.06
2925 H 97.13386087433008 71.79312431045736 39.989641500277514 H 0.0 **** 0.06
2926 C 8.256674573068153 66.95104244390866 18.742294160130655 C 0.0 **** -0.24
2927 H 8.58614074993676 67.34294726792855 17.779926564896613 H 0.0 **** 0.06
2928 H 7.756747334555257 67.74035274994532 19.30313522273221 H 0.0 **** 0.06
2929 H 9.120072782093018 66.59580835546262 19.304603677772718 H 0.0 **** 0.06
2930 H 7.563521666388567 66.125975248243 18.579481745422356 H 0.0 **** 0.06
2931 C 94.12705627096705 74.6992456760398 85.67428528526602 C 0.0 **** -0.24
2932 H 94.32129686514352 74.7392815096013 84.60260229014796 H 0.0 **** 0.06
2933 H 95.04004416386572 74.93953891891167 86.21846353014968 H 0.0 **** 0.06
2934 H 93.79550296904434 73.69632468274577 85.9454802011985 H 0.0 **** 0.06
2935 H 93.35075214291213 75.41965723749327 85.92967274069309 H 0.0 **** 0.06
2936 C 23.92250210486519 41.42899410167947 21.126351512167975 C 0.0 **** -0.24
2937 H 23.57842895667385 42.10030155006594 21.913732459219986 H 0.0 **** 0.06
2938 H 23.8387640169537 40.3964420883805 21.467398538169387 H 0.0 **** 0.06
2939 H 24.962606206141903 41.651017951889635 20.889139446834974 H 0.0 **** 0.06
2940 H 23.30862946944068 41.56923997545287 20.236702026005908 H 0.0 **** 0.06
2941 C 31.06913793954655 57.63022584188681 14.799202503057188 C 0.0 **** -0.24
2942 H 31.13910349701223 58.48980487329709 14.132578587989798 H 0.0 **** 0.06
2943 H 31.78908871841611 57.739819355554914 15.609813899335506 H 0.0 **** 0.06
2944 H 31.283970675425337 56.71862205978593 14.241414746060457 H 0.0 **** 0.06
2945 H 30.06135303530644 57.57429840694439 15.213303394078679 H 0.0 **** 0.06
2946 C 11.624214650921061 36.83437250804647 70.19844191746222 C 0.0 **** -0.24
2947 H 11.950421503477884 37.81453037787901 70.54450016357845 H 0.0 **** 0.06
2948 H 11.514229488798378 36.84998229726625 69.11372841949532 H 0.0 **** 0.06
2949 H 10.666362225635154 36.58851733912962 70.6576191518945 H 0.0 **** 0.06
2950 H 12.364238258745985 36.08489145880873 70.47840071789187 H 0.0 **** 0.06
2951 C 42.718522967810344 52.512879534100705 88.47887217491066 C 0.0 **** -0.24
2952 H 43.161767407363925 51.647355092771534 87.98560492413674 H 0.0 **** 0.06
2953 H 42.509923885537575 52.26903725352469 89.52096436776262 H 0.0 **** 0.06
2954 H 41.78999428877776 52.7818877670519 87.97509563156561 H 0.0 **** 0.06
2955 H 43.413465083871756 53.35187674005789 88.43366248747807 H 0.0 **** 0.06
2956 C 80.77727761627227 95.55233189826441 59.26729818051308 C 0.0 **** -0.24
2957 H 81.57425391326936 95.2407435489024 58.591579857451876 H 0.0 **** 0.06
2958 H 81.21343457916964 95.94921473845568 60.183765214536066 H 0.0 **** 0.06
2959 H 80.14782038880543 94.69512753167544 59.505104777536175 H 0.0 **** 0.06
2960 H 80.17456423548708 96.32297480596463 58.78640439097583 H 0.0 **** 0.06
2961 C 18.014293881399816 49.01867362645672 97.26346811026026 C 0.0 **** -0.24
2962 H 16.961769066735805 49.232538373256006 97.45130887524593 H 0.0 **** 0.06
2963 H 18.475688179214405 48.63891146194908 98.17478677415372 H 0.0 **** 0.06
2964 H 18.52052098694191 49.933653286285846 96.95293282860321 H 0.0 **** 0.06
2965 H 18.09784571923778 48.271370261906895 96.47474859464596 H 0.0 **** 0.06
2966 C 40.490520811646206 98.43468676995843 107.74151276920531 C 0.0 **** -0.24
2967 H 39.44706213514718 98.12485252450722 107.789787129486 H 0.0 **** 0.06
2968 H 41.016034512232636 97.82972160290842 107.00215476127545 H 0.0 **** 0.06
2969 H 40.954537310399644 98.30053262422399 108.7182758158342 H 0.0 **** 0.06
2970 H 40.544171126667266 99.48565103584764 107.4548953233483 H 0.0 **** 0.06
2971 C 55.220236253229075 32.72999204316993 26.91074690299166 C 0.0 **** -0.24
2972 H 54.98150214471312 31.883170795073838 27.554181850209318 H 0.0 **** 0.06
2973 H 54.303993476049044 33.10923279858713 26.45684226830673 H 0.0 **** 0.06
2974 H 55.90816809844114 32.40979240562462 26.128156520710945 H 0.0 **** 0.06
2975 H 55.684841484180794 33.51762043368889 27.503650109188243 H 0.0 **** 0.06
2976 C 108.51829079930832 64.92553834756575 80.62211553619987 C 0.0 **** -0.24
2977 H 108.96407288271502 65.51419841050108 81.42339161542431 H 0.0 **** 0.06
2978 H 107.44736916113766 65.1245774762385 80.5772488217964 H 0.0 **** 0.06
2979 H 108.68291709583912 63.865129808100164 80.81529338969733 H 0.0 **** 0.06
2980 H 108.97988185577145 65.19737998367975 79.67282076934936 H 0.0 **** 0.06
2981 C 12.42450056169406 97.8394654098662 19.886885217678014 C 0.0 **** -0.24
2982 H 13.432816405553524 97.42428475587604 19.882766341124977 H 0.0 **** 0.06
2983 H 12.392985755010358 98.71038304713463 20.542374402060233 H 0.0 **** 0.06
2984 H 11.724183512738477 97.08632973400816 20.24849886858945 H 0.0 **** 0.06
2985 H 12.15003827215898 98.13592171474585 18.874059028505627 H 0.0 **** 0.06
2986 C 48.825241898328045 55.197199183114066 26.790071818300532 C 0.0 **** -0.24
2987 H 48.818809482978395 56.21494231752995 27.178527993047624 H 0.0 **** 0.06
2988 H 48.18411412316334 54.567906744487246 27.40800545087302 H 0.0 **** 0.06
2989 H 49.84413491391598 54.808254034379914 26.809346434404233 H 0.0 **** 0.06
2990 H 48.456708975282936 55.196619864653115 25.764496927528114 H 0.0 **** 0.06
2991 C 99.2981123235795 5.57205689541631 87.95819997198709 C 0.0 **** -0.24
2992 H 99.42978910664034 6.011560823691212 88.94751049487333 H 0.0 **** 0.06
2993 H 100.08306743286757 4.837103149215736 87.78077623215275 H 0.0 **** 0.06
2994 H 99.35574301651943 6.35552489808795 87.20292168024707 H 0.0 **** 0.06
2995 H 98.32474024959849 5.084918050624424 87.90431805423017 H 0.0 **** 0.06
2996 C 61.30254825555882 31.606394177909692 27.12297758145307 C 0.0 **** -0.24
2997 H 60.366501085449514 31.60651685938857 26.563999550467756 H 0.0 **** 0.06
2998 H 61.28417130214392 32.409289103437196 27.86085821235706 H 0.0 **** 0.06
2999 H 62.13462663224024 31.76151505992471 26.436732886822952 H 0.0 **** 0.06
3000 H 61.421751621223635 30.648585176724524 27.63018783886217 H 0.0 **** 0.06
3001 C 101.33152066874796 76.78577704684281 106.23122572768654 C 0.0 **** -0.24
3002 H 100.96811169802693 76.56835613117607 107.23490133605628 H 0.0 **** 0.06
3003 H 102.00595106750566 75.99193359335514 105.90883468489196 H 0.0 **** 0.06
3004 H 101.86454748455684 77.73633935554744 106.23551789298277 H 0.0 **** 0.06
3005 H 100.48699035852528 76.8467794711837 105.54435381570987 H 0.0 **** 0.06
3006 C 18.028040023809865 64.02115947594206 24.678615516318757 C 0.0 **** -0.24
3007 H 18.10441782934447 64.88884154289767 25.334865512129767 H 0.0 **** 0.06
3008 H 18.41315179727718 64.27788011989249 23.69201015460405 H 0.0 **** 0.06
3009 H 16.983805474596156 63.72089223085449 24.5946185141502 H 0.0 **** 0.06
3010 H 18.610403076108362 63.198984196042574 25.09497093508645 H 0.0 **** 0.06
3011 C 31.58678512525455 14.071529151913978 17.58139312431217 C 0.0 **** -0.24
3012 H 30.966526462212023 14.67206237767249 18.247350934977533 H 0.0 **** 0.06
3013 H 32.1206323493107 13.319306448473526 18.16265546397176 H 0.0 **** 0.06
3014 H 32.30424577497091 14.716742056350824 17.074070473436564 H 0.0 **** 0.06
3015 H 30.9546359178661 13.57964066150305 16.84183795746722 H 0.0 **** 0.06
3016 C 87.61048078771896 15.608973594738902 12.810529028884897 C 0.0 **** -0.24
3017 H 86.65045030247904 15.960775291677734 12.432316411979059 H 0.0 **** 0.06
3018 H 88.31366960525278 16.440631657009533 12.84868738520061 H 0.0 **** 0.06
3019 H 87.9981267074428 14.833332140860541 12.150180863143156 H 0.0 **** 0.06
3020 H 87.4765950001347 15.199215591280783 13.811793089485313 H 0.0 **** 0.06
3021 C 107.12162856400944 88.94603460541481 92.20636235065083 C 0.0 **** -0.24
3022 H 107.59999745019427 89.92504271337981 92.24529948729845 H 0.0 **** 0.06
3023 H 107.24484018996628 88.44362423954885 93.16671360942811 H 0.0 **** 0.06
3024 H 107.58181837047542 88.3473485709793 91.42043035917055 H 0.0 **** 0.06
3025 H 106.05951270133134 89.06953438009964 91.99438018030578 H 0.0 **** 0.06
3026 C 59.04518264534468 89.59433345367103 43.14115514926515 C 0.0 **** -0.24
3027 H 58.36263479018572 90.05688474973249 42.42815903423401 H 0.0 **** 0.06
3028 H 59.775547245523114 90.33185220784281 43.47489517132743 H 0.0 **** 0.06
3029 H 59.559765776146776 88.76150025662923 42.66311776571824 H 0.0 **** 0.06
3030 H 58.4797153896929 89.22896559291488 43.998762794306906 H 0.0 **** 0.06
3031 C 49.485317510749745 56.69753501386009 59.63680270416165 C 0.0 **** -0.24
3032 H 49.10946763775779 57.6837445329578 59.909671538257726 H 0.0 **** 0.06
3033 H 48.850900822098055 55.931536978063924 60.08142743029151 H 0.0 **** 0.06
3034 H 50.505668899758184 56.58374951163193 60.00524499306351 H 0.0 **** 0.06
3035 H 49.47692160979433 56.593095322260325 58.55235098245669 H 0.0 **** 0.06
3036 C 16.34200745924042 76.04679708137292 68.22121601570677 C 0.0 **** -0.24
3037 H 15.990153474270528 75.62888489993104 69.16457486974139 H 0.0 **** 0.06
3038 H 17.42987609264702 76.12314197935927 68.2417612230131 H 0.0 **** 0.06
3039 H 15.910100087690878 77.03744045013356 68.07937995978531 H 0.0 **** 0.06
3040 H 16.03793911328995 75.39675467174565 67.40116418316506 H 0.0 **** 0.06
3041 C 30.761888701058233 78.58183535876898 34.07460426782728 C 0.0 **** -0.24
3042 H 30.729286345731182 79.62728487613853 33.76876428048984 H 0.0 **** 0.06
3043 H 31.747226561019374 78.16966433274621 33.85751887282504 H 0.0 **** 0.06
3044 H 30.003536465882483 78.01957181020754 33.52924993470105 H 0.0 **** 0.06
3045 H 30.566179871890185 78.51129560669276 35.144888325307676 H 0.0 **** 0.06
3046 C 75.82211786229371 64.64936857195761 38.13612708030209 C 0.0 **** -0.24
3047 H 75.58417147468508 64.19784029039391 39.099135620375876 H 0.0 **** 0.06
3048 H 76.47247667720015 63.980777905742116 37.57236680342476 H 0.0 **** 0.06
3049 H 76.32923078851657 65.60103833880976 38.296881227284445 H 0.0 **** 0.06
3050 H 74.90119225512187 64.81933224827901 37.57698829318949 H 0.0 **** 0.06
3051 C 16.523668118300176 3.3602016768138867 107.94417830480876 C 0.0 **** -0.24
3052 H 16.480380692282523 3.4674861041244327 106.86006437557336 H 0.0 **** 0.06
3053 H 15.518653997451192 3.440492024787005 108.35731963971352 H 0.0 **** 0.06
3054 H 17.153289130816503 4.146692096198819 108.36177499620146 H 0.0 **** 0.06
3055 H 16.94428005960633 2.3863547406027976 108.19505970715727 H 0.0 **** 0.06
3056 C 19.656969036220147 92.82091529096 3.215147954672261 C 0.0 **** -0.24
3057 H 20.42554486935856 93.43387900389104 3.686222703845111 H 0.0 **** 0.06
3058 H 19.97238951570668 92.55459721723798 2.2060402462266344 H 0.0 **** 0.06
3059 H 18.724101885907857 93.38237902124189 3.167786870572865 H 0.0 **** 0.06
3060 H 19.506240694222242 91.91415991198937 3.800463555062265 H 0.0 **** 0.06
3061 C 77.36591413383609 14.895524170062387 24.191659688640186 C 0.0 **** -0.24
3062 H 76.73613787686104 14.65165061396587 25.04680251257443 H 0.0 **** 0.06
3063 H 77.66684766565447 15.941550099069346 24.249231332713208 H 0.0 **** 0.06
3064 H 76.80752297224329 14.727895834820757 23.269995516002382 H 0.0 **** 0.06
3065 H 78.25176113132336 14.261238604056771 24.20046878745626 H 0.0 **** 0.06
3066 C 103.27314381550738 60.17529850722626 6.033347887448645 C 0.0 **** -0.24
3067 H 104.09106279256414 59.83550345057361 5.397374901375169 H 0.0 **** 0.06
3068 H 103.26965712951812 61.26472381940346 6.068363071990138 H 0.0 **** 0.06
3069 H 103.40736293017079 59.77894698709976 7.0394370457401525 H 0.0 **** 0.06
3070 H 102.32601677603856 59.82153603939727 5.626653660949572 H 0.0 **** 0.06
3071 C 82.76215244806001 27.903493731671666 55.215667295982314 C 0.0 **** -0.24
3072 H 83.70992500766687 27.46533989042377 55.528501308128114 H 0.0 **** 0.06
3073 H 82.93375924472865 28.91650520585261 54.850974796182896 H 0.0 **** 0.06
3074 H 82.07823530022559 27.932305028047473 56.06331104432769 H 0.0 **** 0.06
3075 H 82.32869522186199 27.299033160240803 54.419287392252556 H 0.0 **** 0.06
3076 C 109.72542629306393 9.689518205458441 13.872049033510578 C 0.0 **** -0.24
3077 H 109.99280686939397 10.660278729234903 13.453655192911341 H 0.0 **** 0.06
3078 H 110.5910391461701 9.027567336232565 13.837405198272847 H 0.0 **** 0.06
3079 H 108.91201366609124 9.254889484114045 13.29123452452366 H 0.0 **** 0.06
3080 H 109.40574086046846 9.816202063484397 14.906392379141394 H 0.0 **** 0.06
3081 C 48.71491198731923 47.35168468332495 97.26519044170712 C 0.0 **** -0.24
3082 H 49.12348870054477 46.764253694545346 96.44303435738753 H 0.0 **** 0.06
3083 H 49.42629450748685 47.36282791194765 98.09088073640561 H 0.0 **** 0.06
3084 H 47.77706601299579 46.90725123496003 97.59817326817605 H 0.0 **** 0.06
3085 H 48.53401720508348 48.37143565836419 96.92678283276099 H 0.0 **** 0.06
3086 C 0.1705008984970533 67.68708810998498 92.47726724048289 C 0.0 **** -0.24
3087 H -0.05445919168667501 66.88978198135226 91.76799177152395 H 0.0 **** 0.06
3088 H -0.7591956570475276 68.08528797881638 92.88286047979034 H 0.0 **** 0.06
3089 H 0.7162499519947687 68.48182802529374 91.96843408257291 H 0.0 **** 0.06
3090 H 0.78081212455497 67.28953326061352 93.28795525870206 H 0.0 **** 0.06
3091 C 62.475171435033246 106.31267059251564 63.24236932977712 C 0.0 **** -0.24
3092 H 63.17298304608494 107.13708561775934 63.38911589732729 H 0.0 **** 0.06
3093 H 61.81485886972945 106.54168911535683 62.4045276492424 H 0.0 **** 0.06
3094 H 61.88164659004292 106.17368503968822 64.1460933011786 H 0.0 **** 0.06
3095 H 63.03115974952772 105.39983024326648 63.02789266972843 H 0.0 **** 0.06
3096 C 17.89064485589506 75.70830662823718 4.3033362933562636 C 0.0 **** -0.24
3097 H 18.042403356500984 76.2085862641706 3.3466365497623762 H 0.0 **** 0.06
3098 H 17.784324056435707 74.63585018129717 4.139126654920048 H 0.0 **** 0.06
3099 H 16.987236590339307 76.09539033102362 4.7763939305088545 H 0.0 **** 0.06
3100 H 18.74761391868782 75.89452423650863 4.9495349364426655 H 0.0 **** 0.06
3101 C 9.517262788686239 90.24560034956667 38.24764824424612 C 0.0 **** -0.24
3102 H 9.42922411650072 89.28758612898622 37.73560951699453 H 0.0 **** 0.06
3103 H 8.623477553580898 90.840759898648 38.0581941877375 H 0.0 **** 0.06
3104 H 10.393185652519307 90.77711227593613 37.87727561950362 H 0.0 **** 0.06
3105 H 9.620826061790453 90.07623295528037 39.31933805819111 H 0.0 **** 0.06
3106 C 52.33382536855132 46.688015785434914 51.912334691599256 C 0.0 **** -0.24
3107 H 53.405120981810875 46.52755159842479 51.79253624001848 H 0.0 **** 0.06
3108 H 51.828860141812044 45.723921626342644 51.98832424039355 H 0.0 **** 0.06
3109 H 51.95025789215185 47.23321031706956 51.0501324949125 H 0.0 **** 0.06
3110 H 52.15180578442953 47.26581596358187 52.8183973541268 H 0.0 **** 0.06
3111 C 51.583760432436286 11.001534945641595 108.15494841942612 C 0.0 **** -0.24
3112 H 51.075122055159014 11.355796366727816 109.05053788317812 H 0.0 **** 0.06
3113 H 51.78053916606451 11.845097355299174 107.49178824024365 H 0.0 **** 0.06
3114 H 50.95421075253079 10.274638394166345 107.64183310046765 H 0.0 **** 0.06
3115 H 52.52691178065531 10.531834266695114 108.43442569272074 H 0.0 **** 0.06
3116 C 75.89346217274533 11.737952682490032 24.78512917484926 C 0.0 **** -0.24
3117 H 75.74501608009177 10.715446315564378 24.43603708781157 H 0.0 **** 0.06
3118 H 75.4664280063312 11.84743658760533 25.781509512650644 H 0.0 **** 0.06
3119 H 75.40234802000992 12.429777477432282 24.100122516893947 H 0.0 **** 0.06
3120 H 76.96086483032276 11.957478813627688 24.81992297772615 H 0.0 **** 0.06
3121 C 106.48638519593297 71.3771995530999 44.030049694835824 C 0.0 **** -0.24
3122 H 106.2377845430528 70.35748535720194 43.73586198429459 H 0.0 **** 0.06
3123 H 106.8896377042533 71.3750002058232 45.04302123474832 H 0.0 **** 0.06
3124 H 105.58710410476822 71.99302446194173 43.99800322375013 H 0.0 **** 0.06
3125 H 107.22856710831672 71.78338026136527 43.34326301595499 H 0.0 **** 0.06
3126 C 108.49303287547752 48.069230947949265 82.0743638346658 C 0.0 **** -0.24
3127 H 108.92064982155728 49.03163107092497 82.35550344921518 H 0.0 **** 0.06
3128 H 108.8423969095411 47.79319066873014 81.07919033524925 H 0.0 **** 0.06
3129 H 107.40524181664364 48.14243875046788 82.07036508204874 H 0.0 **** 0.06
3130 H 108.80356551441577 47.310456285263776 82.79185401985933 H 0.0 **** 0.06
3131 C 20.405619999717977 6.958802031265321 2.452980544095797 C 0.0 **** -0.24
3132 H 20.758620034654353 6.168967889917781 1.7896271273578641 H 0.0 **** 0.06
3133 H 19.81876586329272 7.678361782146993 1.88025039481587 H 0.0 **** 0.06
3134 H 21.259888303086456 7.463135941350004 2.903991271669925 H 0.0 **** 0.06
3135 H 19.78428412064099 6.524317703434747 3.2358239541839815 H 0.0 **** 0.06
3136 C 49.413333878716514 92.01717733664383 38.24711530236236 C 0.0 **** -0.24
3137 H 49.39794289956461 93.00444337847536 38.707412539963144 H 0.0 **** 0.06
3138 H 50.38154888296981 91.85339267923248 37.772035185909985 H 0.0 **** 0.06
3139 H 48.62557373468212 91.95384992661299 37.49645404407348 H 0.0 **** 0.06
3140 H 49.25036774029968 91.25681191663102 39.01131241577136 H 0.0 **** 0.06
3141 C 72.8226006016423 46.12851926134039 62.20153334135239 C 0.0 **** -0.24
3142 H 72.68408337176066 45.30093046760925 61.50581824329606 H 0.0 **** 0.06
3143 H 73.8877802699759 46.28841568898298 62.36804498729708 H 0.0 **** 0.06
3144 H 72.33855647552377 45.89094733720998 63.149586962794956 H 0.0 **** 0.06
3145 H 72.37911328828045 47.031832947021485 61.78334667072971 H 0.0 **** 0.06
3146 C 56.234970251925034 44.01289652655775 92.37303438585832 C 0.0 **** -0.24
3147 H 55.93348063492303 43.06399595164244 91.92859937580366 H 0.0 **** 0.06
3148 H 55.649056792176 44.821588595085785 91.93584872373687 H 0.0 **** 0.06
3149 H 57.29341237808595 44.18417044358429 92.18092461469672 H 0.0 **** 0.06
3150 H 56.062286428057945 43.980458820925065 93.4496652045241 H 0.0 **** 0.06
3151 C 4.544807652722028 84.34853622833498 39.246911180290454 C 0.0 **** -0.24
3152 H 4.787089012776391 85.40992217089726 39.20572505795778 H 0.0 **** 0.06
3153 H 3.4834376685839175 84.22649862039793 39.46566759433179 H 0.0 **** 0.06
3154 H 5.13434572112115 83.87039252343578 40.02911715773266 H 0.0 **** 0.06
3155 H 4.773494782657622 83.88740428924484 38.28601718460679 H 0.0 **** 0.06
3156 C 105.96810093026737 70.497973544003 80.7755966266597 C 0.0 **** -0.24
3157 H 105.6475868435589 69.76547967285723 80.03374471618747 H 0.0 **** 0.06
3158 H 107.05205015031184 70.45281986390705 80.8863757914599 H 0.0 **** 0.06
3159 H 105.49536493366493 70.27537231962123 81.7325240723377 H 0.0 **** 0.06
3160 H 105.67648984333208 71.49544539316702 80.44906555488814 H 0.0 **** 0.06
3161 C 25.99659778760204 95.55599448577844 85.59764821434705 C 0.0 **** -0.24
3162 H 27.059079226760502 95.39160307486867 85.77865212303756 H 0.0 **** 0.06
3163 H 25.584833187016415 96.1767641933519 86.3928164796582 H 0.0 **** 0.06
3164 H 25.47861564777324 94.59640587416423 85.58130821957567 H 0.0 **** 0.06
3165 H 25.864986534326704 96.0564708959097 84.63832992928464 H 0.0 **** 0.06
3166 C 15.860539072969715 99.95815780654368 109.00566188219179 C 0.0 **** -0.24
3167 H 15.306104651728987 100.41438080037443 108.18554250932755 H 0.0 **** 0.06
3168 H 15.571525377575028 98.91122924081918 109.10230781055475 H 0.0 **** 0.06
3169 H 15.634070869106608 100.48464387552082 109.9331813359187 H 0.0 **** 0.06
3170 H 16.929181547477555 100.02355109208435 108.80303001656897 H 0.0 **** 0.06
3171 C 10.797815236654777 81.94817885042369 35.9993691729625 C 0.0 **** -0.24
3172 H 11.410939801297857 82.71032158048567 36.48085280148047 H 0.0 **** 0.06
3173 H 10.514893964509012 82.28515141873098 35.00251876608104 H 0.0 **** 0.06
3174 H 9.900482413832304 81.77624458147346 36.594549136915845 H 0.0 **** 0.06
3175 H 11.36588859992791 81.02129091397305 35.922206209645935 H 0.0 **** 0.06
3176 C 73.16530039235982 88.27342098413851 95.00971026077195 C 0.0 **** -0.24
3177 H 73.01221855866254 89.31896076992706 95.27589103953773 H 0.0 **** 0.06
3178 H 72.24455803378487 87.86534794485175 94.59402939262571 H 0.0 **** 0.06
3179 H 73.44498579136337 87.70919189180881 95.89980765904035 H 0.0 **** 0.06
3180 H 73.9628601399246 88.20131705372341 94.26900161566317 H 0.0 **** 0.06
3181 C 49.38283748668118 4.41977158878268 70.04420645654699 C 0.0 **** -0.24
3182 H 50.24439394651648 4.911916132607871 69.59317659413006 H 0.0 **** 0.06
3183 H 48.95913322844183 3.7075985395620705 69.33521277116236 H 0.0 **** 0.06
3184 H 48.63199740024743 5.1662000695188794 70.30196871539894 H 0.0 **** 0.06
3185 H 49.69654169707076 3.8940237960738386 70.94621958064045 H 0.0 **** 0.06
3186 C 55.19431693224815 7.867277754598831 36.81800431556644 C 0.0 **** -0.24
3187 H 54.74459469061111 8.31471430387171 35.93106338045425 H 0.0 **** 0.06
3188 H 55.681704674187614 6.931398798695568 36.545237956989524 H 0.0 **** 0.06
3189 H 54.41796793151942 7.671059921155177 37.557421326028816 H 0.0 **** 0.06
3190 H 55.92978476806276 8.553228783547013 37.23688248368836 H 0.0 **** 0.06
3191 C 10.26424316669806 59.96116966658252 89.92953824378628 C 0.0 **** -0.24
3192 H 10.85622728898042 59.82594631216142 90.83497415946567 H 0.0 **** 0.06
3193 H 10.912194897125957 59.877983801315565 89.05699976455179 H 0.0 **** 0.06
3194 H 9.798679326628305 60.947179296418994 89.94437424338707 H 0.0 **** 0.06
3195 H 9.49066607217358 59.19506877672276 89.8832607594847 H 0.0 **** 0.06
3196 C 102.0296149137107 108.24782414110763 87.73101057040435 C 0.0 **** -0.24
3197 H 102.66848887004477 107.57015016872556 88.29745367854758 H 0.0 **** 0.06
3198 H 102.36866823537977 109.27395228710242 87.875819559143 H 0.0 **** 0.06
3199 H 101.00059640954697 108.1528893832286 88.07850599322416 H 0.0 **** 0.06
3200 H 102.07965743621486 107.99525150227474 86.67232577785524 H 0.0 **** 0.06
3201 C 8.47992364913046 64.93855717753036 60.41601336811351 C 0.0 **** -0.24
3202 H 9.413015433238275 65.06912226887175 60.96423797440323 H 0.0 **** 0.06
3203 H 7.8094343288841905 65.76966634683555 60.636064232686635 H 0.0 **** 0.06
3204 H 8.009862515361053 64.00173762887692 60.716786444267356 H 0.0 **** 0.06
3205 H 8.68787786864495 64.91258996945442 59.34624587491844 H 0.0 **** 0.06
3206 C 95.16648584409933 90.54468106470057 104.96258192919274 C 0.0 **** -0.24
3207 H 95.69565806875761 91.38796812225729 104.51807606969292 H 0.0 **** 0.06
3208 H 94.62903922786145 90.00318314914949 104.1830147679025 H 0.0 **** 0.06
3209 H 94.45863279989442 90.91054863642546 105.70542959253685 H 0.0 **** 0.06
3210 H 95.884303745496 89.87796763647373 105.4407653806438 H 0.0 **** 0.06
3211 C 34.533508299760086 17.58903836048919 60.06132537554447 C 0.0 **** -0.24
3212 H 33.55465510308281 17.617767099481487 59.581857077095606 H 0.0 **** 0.06
3213 H 34.58156940409816 18.355550813111527 60.835130614809486 H 0.0 **** 0.06
3214 H 35.307027952255794 17.7757077763021 59.315910964430344 H 0.0 **** 0.06
3215 H 34.68995556447237 16.608493434932935 60.510544270933224 H 0.0 **** 0.06
3216 C 68.2927379794497 51.552767155237575 58.21807896332871 C 0.0 **** -0.24
3217 H 68.7574101872493 51.102415083644814 57.34023925990965 H 0.0 **** 0.06
3218 H 67.21666967721833 51.38086204593736 58.18742949742051 H 0.0 **** 0.06
3219 H 68.49010859313738 52.62404266535782 58.22473328939529 H 0.0 **** 0.06
3220 H 68.70725381076716 51.10080673761121 59.119591123051805 H 0.0 **** 0.06
3221 C 45.32607082818856 83.63565203072241 49.148201404738124 C 0.0 **** -0.24
3222 H 46.21088977221899 83.30236201420351 48.605405901201266 H 0.0 **** 0.06
3223 H 44.57258034285235 82.84851539259515 49.133999129855894 H 0.0 **** 0.06
3224 H 44.925830518849125 84.532423703225 48.67408111597121 H 0.0 **** 0.06
3225 H 45.59787797873179 83.86045391030157 50.17986935150036 H 0.0 **** 0.06
3226 C 108.82844386491959 71.4283897116783 22.276302477435763 C 0.0 **** -0.24
3227 H 109.25761414773794 71.41189697301567 21.27448483461808 H 0.0 **** 0.06
3228 H 107.74811188313365 71.55802509883586 22.206572701791345 H 0.0 **** 0.06
3229 H 109.25881951624973 72.25448026101274 22.841885279667167 H 0.0 **** 0.06
3230 H 109.04986050668842 70.48739590596432 22.78155800127047 H 0.0 **** 0.06
3231 C 73.28069817229948 29.113440184726613 58.42259712068236 C 0.0 **** -0.24
3232 H 74.19520756289035 28.850029774433068 57.890706823667784 H 0.0 **** 0.06
3233 H 73.23783059978553 30.19438910035464 58.55613567589868 H 0.0 **** 0.06
3234 H 73.273873772949 28.62558396587295 59.39756763048612 H 0.0 **** 0.06
3235 H 72.41712191915684 28.78323582259867 57.84488881339617 H 0.0 **** 0.06
3236 C 44.577197979475415 98.19776740888841 104.98937624601079 C 0.0 **** -0.24
3237 H 45.320740666455436 98.96859406440197 104.78814940293911 H 0.0 **** 0.06
3238 H 43.624396435075084 98.66741380519613 105.23276931881712 H 0.0 **** 0.06
3239 H 44.90662160672581 97.58662110670573 105.83067826592183 H 0.0 **** 0.06
3240 H 44.4585235207775 97.5681000213599 104.10719762408891 H 0.0 **** 0.06
3241 C 82.0717866289462 100.69431460226359 78.45031873032917 C 0.0 **** -0.24
3242 H 82.08762835704977 100.47618904872552 77.38216843747475 H 0.0 **** 0.06
3243 H 83.02492771354676 101.13502131459944 78.74426506679288 H 0.0 **** 0.06
3244 H 81.9108084105161 99.7720806320203 79.00719499179226 H 0.0 **** 0.06
3245 H 81.26545035582546 101.39534684023918 78.66650004458606 H 0.0 **** 0.06
3246 C 42.63735550703143 50.410829408891004 14.425801858231424 C 0.0 **** -0.24
3247 H 42.15375758043359 51.387043955027764 14.384900039000598 H 0.0 **** 0.06
3248 H 42.14612755157839 49.732062512051186 13.73007833220646 H 0.0 **** 0.06
3249 H 42.56218249912416 50.012133514164134 15.438020900340689 H 0.0 **** 0.06
3250 H 43.68774872578274 50.51510475499447 14.15331977214845 H 0.0 **** 0.06
3251 C 10.824171747213953 51.4092561922894 53.55276864003116 C 0.0 **** -0.24
3252 H 11.50841084271908 52.09255232743952 53.04952615863755 H 0.0 **** 0.06
3253 H 10.709540708625319 50.50501314191903 52.954283881046365 H 0.0 **** 0.06
3254 H 9.85363605783315 51.89134530767902 53.67291158195775 H 0.0 **** 0.06
3255 H 11.225062515819488 51.14922662118398 54.53217096706095 H 0.0 **** 0.06
3256 C 58.48594287342925 78.47753468420899 108.6063548159143 C 0.0 **** -0.24
3257 H 58.91804883818577 79.46390540530616 108.44006913732463 H 0.0 **** 0.06
3258 H 58.16309757439785 78.3937213299363 109.64407152421445 H 0.0 **** 0.06
3259 H 59.234854822851105 77.71306147826752 108.39575467694911 H 0.0 **** 0.06
3260 H 57.63014553637316 78.33903157111175 107.94595151691121 H 0.0 **** 0.06
3261 C 26.77015910758695 30.691116296131582 103.64438763131359 C 0.0 **** -0.24
3262 H 26.53000250265066 29.796167507660726 103.07055124996677 H 0.0 **** 0.06
3263 H 27.72617375124929 31.093235583729864 103.30698745077525 H 0.0 **** 0.06
3264 H 26.836246558601573 30.43681951882445 104.70228523204611 H 0.0 **** 0.06
3265 H 25.98928110220635 31.43716565967219 103.49856377991982 H 0.0 **** 0.06
3266 C 73.19092164471914 94.77563745848408 73.96832005318271 C 0.0 **** -0.24
3267 H 73.1493528402703 94.73421886828544 75.05668316372655 H 0.0 **** 0.06
3268 H 74.10887716997007 95.27632396221054 73.65951519578026 H 0.0 **** 0.06
3269 H 72.33039530478828 95.33097541398803 73.59363756748752 H 0.0 **** 0.06
3270 H 73.17455960627456 93.76370047594668 73.56471936889275 H 0.0 **** 0.06
3271 C 8.66248944607573 69.13491931461816 107.74828820350706 C 0.0 **** -0.24
3272 H 9.052586421181328 70.11391826533468 107.47021244375856 H 0.0 **** 0.06
3273 H 8.594938818838655 68.50500658972695 106.86145699662632 H 0.0 **** 0.06
3274 H 7.672078896973806 69.25056993873098 108.18924924593625 H 0.0 **** 0.06
3275 H 9.331141583540576 68.67088432232337 108.47393317257206 H 0.0 **** 0.06
3276 C 66.15289896644094 10.68554374396848 82.21285332831422 C 0.0 **** -0.24
3277 H 66.79903823999014 10.881444648225724 81.35706619717598 H 0.0 **** 0.06
3278 H 66.6389712686274 9.97476120888767 82.88068459831558 H 0.0 **** 0.06
3279 H 65.20607420105947 10.27041666165782 81.86500682975691 H 0.0 **** 0.06
3280 H 65.96623685282248 11.617380864476843 82.74691473129536 H 0.0 **** 0.06
3281 C 64.5597076585913 103.87982697740445 99.17187276089783 C 0.0 **** -0.24
3282 H 64.54114192055911 102.81569706102947 99.40645440615748 H 0.0 **** 0.06
3283 H 65.54847152090596 104.2826328160476 99.38868409120602 H 0.0 **** 0.06
3284 H 63.81422633690549 104.39828455804644 99.77532955135834 H 0.0 **** 0.06
3285 H 64.33220326334677 104.02193853521455 98.11464389886488 H 0.0 **** 0.06
3286 C 35.3019339307445 105.07610000734128 108.36201617032765 C 0.0 **** -0.24
3287 H 35.82019449441691 104.17722657786354 108.02878764081885 H 0.0 **** 0.06
3288 H 34.883200535690435 104.90712610986631 109.35422124520136 H 0.0 **** 0.06
3289 H 34.49883032646164 105.31131362455447 107.66356653837948 H 0.0 **** 0.06
3290 H 36.00448153525673 105.90789880524453 108.40037364966923 H 0.0 **** 0.06
3291 C 74.48977119432635 62.19391792821045 58.871891308020565 C 0.0 **** -0.24
3292 H 74.81918061394299 61.309766664102995 59.41977343419373 H 0.0 **** 0.06
3293 H 74.90755112103727 62.171794924719165 57.86476306425436 H 0.0 **** 0.06
3294 H 74.83317569706924 63.089786940944464 59.38896265672406 H 0.0 **** 0.06
3295 H 73.40185653838734 62.201718271528534 58.814258596736494 H 0.0 **** 0.06
3296 C 13.547122228403595 4.908645437273279 30.269637197969644 C 0.0 **** -0.24
3297 H 13.240773741191532 4.056448693176094 29.664062280623995 H 0.0 **** 0.06
3298 H 13.1592572452588 5.826133445164757 29.82772067598168 H 0.0 **** 0.06
3299 H 14.635531028178008 4.9554449826981966 30.30792333537545 H 0.0 **** 0.06
3300 H 13.153270611582514 4.796666190822705 31.27977495133166 H 0.0 **** 0.06
3301 C 104.80047546994744 24.496000769177826 71.03634916101731 C 0.0 **** -0.24
3302 H 104.07584178417227 24.080390268537656 70.336770272362 H 0.0 **** 0.06
3303 H 105.80325814994508 24.399054214535127 70.62083746461013 H 0.0 **** 0.06
3304 H 104.74387201961906 23.95556305484064 71.98160674105486 H 0.0 **** 0.06
3305 H 104.57683123078384 25.549547798227508 71.20672136830092 H 0.0 **** 0.06
3306 C 6.361091918122241 67.76543545509952 76.32432137334058 C 0.0 **** -0.24
3307 H 5.461351452094803 68.2958085692986 76.0110144472778 H 0.0 **** 0.06
3308 H 6.08036169558288 66.84860570584885 76.8418215560311 H 0.0 **** 0.06
3309 H 6.940916773453907 68.39940168656253 76.99445541992833 H 0.0 **** 0.06
3310 H 6.961246230291309 67.51935696456036 75.44834768183202 H 0.0 **** 0.06
3311 C 107.18995085197653 51.64307979505354 58.67540963626284 C 0.0 **** -0.24
3312 H 107.78778670590148 50.76047369321773 58.44670781537753 H 0.0 **** 0.06
3313 H 106.15026679343507 51.34913075245827 58.8227486961957 H 0.0 **** 0.06
3314 H 107.2547331223538 52.348762245217614 57.8466465123679 H 0.0 **** 0.06
3315 H 107.56834699667021 52.11216416237178 59.582883535024365 H 0.0 **** 0.06
3316 C 98.39694754150828 77.2051905705143 74.0645405869112 C 0.0 **** -0.24
3317 H 98.96362038229815 76.87963737416116 74.93635231669441 H 0.0 **** 0.06
3318 H 97.33956109201915 76.9922031456213 74.21841045056874 H 0.0 **** 0.06
3319 H 98.75098025496214 76.67307173863672 73.1817024886158 H 0.0 **** 0.06
3320 H 98.53467093362362 78.27768609144624 73.92243350650413 H 0.0 **** 0.06
3321 C 28.20896569895143 47.10203834801632 28.998377580079648 C 0.0 **** -0.24
3322 H 29.23820061177645 47.33843736392501 29.267648283716767 H 0.0 **** 0.06
3323 H 27.898506004051598 46.1910085024856 29.510258566508583 H 0.0 **** 0.06
3324 H 28.140111834849222 46.95502719089981 27.92057073618156 H 0.0 **** 0.06
3325 H 27.557693806725126 47.925449382608406 29.294816476885757 H 0.0 **** 0.06
3326 C 13.69378530618576 50.569372912199526 52.31658546305817 C 0.0 **** -0.24
3327 H 12.770063873186018 50.4517294676225 51.749582384896044 H 0.0 **** 0.06
3328 H 13.553933179200499 50.177010645125335 53.32467377690008 H 0.0 **** 0.06
3329 H 13.954268082564795 51.626633514285004 52.37183493815572 H 0.0 **** 0.06
3330 H 14.496198435445422 50.022182375294335 51.82098334595203 H 0.0 **** 0.06
3331 C 21.046643020607092 98.53685209984747 12.35573433079253 C 0.0 **** -0.24
3332 H 20.82128072602127 97.97880584156101 13.26420222355188 H 0.0 **** 0.06
3333 H 21.834360247423177 99.26183885525622 12.559990280221907 H 0.0 **** 0.06
3334 H 20.150807093036263 99.05860103569105 12.018478063436309 H 0.0 **** 0.06
3335 H 21.379814004633886 97.84727766229237 11.579208096233405 H 0.0 **** 0.06
3336 C 2.748796658699007 35.26074504916481 57.42850522895924 C 0.0 **** -0.24
3337 H 2.665293555142057 35.37428844537992 56.34760150223363 H 0.0 **** 0.06
3338 H 2.616188762413458 34.2124854872024 57.69423387852174 H 0.0 **** 0.06
3339 H 1.9796950953606256 35.86037464076276 57.91585407119521 H 0.0 **** 0.06
3340 H 3.7331905513769925 35.59715482553088 57.75376643620649 H 0.0 **** 0.06
3341 C 78.77194743394867 45.880417346245395 55.06940373562588 C 0.0 **** -0.24
3342 H 78.09608865857103 46.62554947696128 55.48986275860722 H 0.0 **** 0.06
3343 H 78.46764403235895 45.65013349174774 54.04790798560725 H 0.0 **** 0.06
3344 H 78.73276047477805 44.97353952166702 55.6736245336177 H 0.0 **** 0.06
3345 H 79.7882636492034 46.2718565875125 55.06689303769451 H 0.0 **** 0.06
3346 C 85.64609423434857 52.29220790482998 103.3374824302291 C 0.0 **** -0.24
3347 H 86.35065798517957 51.46129238614617 103.31016893222386 H 0.0 **** 0.06
3348 H 84.62793995091437 51.903988651930376 103.37254555444395 H 0.0 **** 0.06
3349 H 85.77203761363046 52.90347625902467 102.44380799326308 H 0.0 **** 0.06
3350 H 85.83477024233153 52.89892287090561 104.2226225316187 H 0.0 **** 0.06
3351 C 19.842108286721924 43.45919753773808 83.63975657802759 C 0.0 **** -0.24
3352 H 20.16927281297845 42.670662969361246 84.31758129535861 H 0.0 **** 0.06
3353 H 19.015362286537794 44.006496284505715 84.09298155815233 H 0.0 **** 0.06
3354 H 19.514106319753722 43.017098528287846 82.69930302974227 H 0.0 **** 0.06
3355 H 20.66964572027304 44.142437028195616 83.45057071040644 H 0.0 **** 0.06
3356 C 59.25787302175513 77.5083710060344 101.18707065342295 C 0.0 **** -0.24
3357 H 59.77623951380551 76.84900759876226 101.88269538803831 H 0.0 **** 0.06
3358 H 59.29093136118479 77.078718376393 100.1859310580636 H 0.0 **** 0.06
3359 H 59.743159175171286 78.48389955309102 101.18089899044526 H 0.0 **** 0.06
3360 H 58.2194645832636 77.6218491011717 101.49910172592763 H 0.0 **** 0.06
3361 C 80.06529823541041 74.80328542385433 97.8422011247638 C 0.0 **** -0.24
3362 H 80.62817677638003 74.07798128768798 97.25440319591867 H 0.0 **** 0.06
3363 H 80.31750720006252 74.68997873426514 98.89631968519843 H 0.0 **** 0.06
3364 H 78.99833840710218 74.63359585824549 97.70268827429805 H 0.0 **** 0.06
3365 H 80.31914719487457 75.81088871156976 97.51282283656856 H 0.0 **** 0.06
3366 C 30.07947395797649 42.228770439968 91.47958689154234 C 0.0 **** -0.24
3367 H 29.50180576927815 42.0260358907301 92.38131184317774 H 0.0 **** 0.06
3368 H 29.42210875690708 42.18741703077717 90.61034774966032 H 0.0 **** 0.06
3369 H 30.865913290210074 41.4819978914727 91.37679778759178 H 0.0 **** 0.06
3370 H 30.526983789000553 43.220863830383394 91.55044209334324 H 0.0 **** 0.06
3371 C 35.20743427989021 65.21954545159758 15.902014735327128 C 0.0 **** -0.24
3372 H 35.53249852205306 65.34681903338867 14.869592153001292 H 0.0 **** 0.06
3373 H 34.29490352820284 64.62345429003665 15.924458178713309 H 0.0 **** 0.06
3374 H 35.014250128445624 66.19602164115116 16.345861389853667 H 0.0 **** 0.06
3375 H 35.9874872505013 64.71103955881642 16.469108977668654 H 0.0 **** 0.06
3376 C 53.72741977452696 16.050552946583224 85.93410427774 C 0.0 **** -0.24
3377 H 54.52625751956499 16.401327111993652 86.58756543072087 H 0.0 **** 0.06
3378 H 52.88988414567151 16.745558968031048 85.9787848277478 H 0.0 **** 0.06
3379 H 53.399048330627174 15.063313274761754 86.25990142736026 H 0.0 **** 0.06
3380 H 54.0965581179862 15.99119309975842 84.90994606089507 H 0.0 **** 0.06
3381 C 97.25169492455956 72.8589796753123 16.760984547538087 C 0.0 **** -0.24
3382 H 97.00539153161593 73.01766574087877 17.81080076758559 H 0.0 **** 0.06
3383 H 97.18650518907113 73.80658330206279 16.225440485529617 H 0.0 **** 0.06
3384 H 96.54877786357501 72.14722163773129 16.325924865508355 H 0.0 **** 0.06
3385 H 98.26425939106475 72.46517881007628 16.680742748922796 H 0.0 **** 0.06
3386 C 14.240454491288062 26.66199050252989 87.37059207879243 C 0.0 **** -0.24
3387 H 13.439109394262289 27.373844201674046 87.5707822925162 H 0.0 **** 0.06
3388 H 14.362427057300863 26.0011532891821 88.22894376362649 H 0.0 **** 0.06
3389 H 15.17106115158444 27.202805066081254 87.19330227122681 H 0.0 **** 0.06
3390 H 13.989646733513695 26.072353619502252 86.48940396345013 H 0.0 **** 0.06
3391 C 97.63392256484133 11.815085473068052 71.91947502959336 C 0.0 **** -0.24
3392 H 97.53385104361644 11.8316498740503 70.83382863965765 H 0.0 **** 0.06
3393 H 97.95515986036537 10.823772821176078 72.2396305739602 H 0.0 **** 0.06
3394 H 96.67274659323255 12.051713842254628 72.37546678621139 H 0.0 **** 0.06
3395 H 98.3738490924261 12.554938515830202 72.22674038749285 H 0.0 **** 0.06
3396 C 79.67835859410172 96.67096933325116 9.805025805585956 C 0.0 **** -0.24
3397 H 78.65705981747652 96.31343999470737 9.929982725331456 H 0.0 **** 0.06
3398 H 80.3719352899659 95.94653674624855 10.231918678487034 H 0.0 **** 0.06
3399 H 79.79376853942489 97.62849023172735 10.313656362975053 H 0.0 **** 0.06
3400 H 79.89135655217274 96.79608821117588 8.743510918895538 H 0.0 **** 0.06
3401 C 8.358046770419548 77.62044154407988 80.85851957626404 C 0.0 **** -0.24
3402 H 7.382357872521297 78.10645453369187 80.83103645466893 H 0.0 **** 0.06
3403 H 9.141246726865731 78.37792417142248 80.84916076163854 H 0.0 **** 0.06
3404 H 8.465440689238235 76.97426201724346 79.98748152812445 H 0.0 **** 0.06
3405 H 8.440194476652238 77.02341289598138 81.76688034708357 H 0.0 **** 0.06
3406 C 101.03737168078177 33.65201931666331 72.92635055365571 C 0.0 **** -0.24
3407 H 101.5040596433153 33.16300276576874 73.78105860796127 H 0.0 **** 0.06
3408 H 100.78750598138579 34.68035636663103 73.1893178975227 H 0.0 **** 0.06
3409 H 100.13007213809865 33.11514891258457 72.65115172861442 H 0.0 **** 0.06
3410 H 101.73058188466437 33.65017857265701 72.08495113809886 H 0.0 **** 0.06
3411 C 79.17071902234007 2.1721249995032474 95.12776674281764 C 0.0 **** -0.24
3412 H 78.35437306825314 2.547437121444524 95.74536601146391 H 0.0 **** 0.06
3413 H 78.79782267502371 1.9552064954007324 94.12596961316774 H 0.0 **** 0.06
3414 H 79.57208280540505 1.2600504952404226 95.57123942680045 H 0.0 **** 0.06
3415 H 79.95743169063896 2.923898120177981 95.06845351517396 H 0.0 **** 0.06
3416 C 53.21257204997303 109.76675666214538 60.4160243538397 C 0.0 **** -0.24
3417 H 52.74019330112176 110.5940961309567 59.887716314578384 H 0.0 **** 0.06
3418 H 53.28449114856895 110.00654769178954 61.47726781211321 H 0.0 **** 0.06
3419 H 54.21169563378832 109.60094286546143 60.012763155718304 H 0.0 **** 0.06
3420 H 52.614686454635525 108.86406433545181 60.28705865007555 H 0.0 **** 0.06
3421 C 82.08640787345942 43.421266508025894 50.38295906366856 C 0.0 **** -0.24
3422 H 82.92301413534452 44.029189230091845 50.03868932452855 H 0.0 **** 0.06
3423 H 81.18002591609314 44.0273901877635 50.3985352316694 H 0.0 **** 0.06
3424 H 82.29456704232655 43.05179545869831 51.38628082413423 H 0.0 **** 0.06
3425 H 81.94762435398178 42.57752069323982 49.70606104350914 H 0.0 **** 0.06
3426 C 61.90440372258561 58.24967622607665 89.28263801705361 C 0.0 **** -0.24
3427 H 61.76672930541139 59.32999392968162 89.24983410944657 H 0.0 **** 0.06
3428 H 61.566519847921825 57.81127781404346 88.34306465410862 H 0.0 **** 0.06
3429 H 61.32562658097174 57.83411697240704 90.10646395212507 H 0.0 **** 0.06
3430 H 62.96066905771161 58.022797584504744 89.43018596768849 H 0.0 **** 0.06
3431 C 41.05913155970204 88.57192846401563 42.80662919290336 C 0.0 **** -0.24
3432 H 41.318024245527674 88.54515249379017 43.86497145453902 H 0.0 **** 0.06
3433 H 41.95462352161759 88.39761946893204 42.20967251145669 H 0.0 **** 0.06
3434 H 40.64206059171527 89.54835420497416 42.559610316141544 H 0.0 **** 0.06
3435 H 40.32234695540573 87.79741951550972 42.59209458164338 H 0.0 **** 0.06
3436 C 17.951619068864105 89.40441031661845 106.9080579201166 C 0.0 **** -0.24
3437 H 17.760905891125844 88.36883614327792 106.6236015482682 H 0.0 **** 0.06
3438 H 19.022922777223684 89.6013929440831 106.86352748636257 H 0.0 **** 0.06
3439 H 17.59195345001251 89.57434205758312 107.92238554334496 H 0.0 **** 0.06
3440 H 17.429966288751416 90.07111753731107 106.22142949843203 H 0.0 **** 0.06
3441 C 86.49800661035681 77.84386557936791 101.05015120669952 C 0.0 **** -0.24
3442 H 87.37550128961146 78.1456621357759 101.62111058041108 H 0.0 **** 0.06
3443 H 85.66721188879808 78.5100355591253 101.28178107949375 H 0.0 **** 0.06
3444 H 86.22779814009095 76.82082431572692 101.3140105344612 H 0.0 **** 0.06
3445 H 86.72090058678666 77.89643295535443 99.98485845943546 H 0.0 **** 0.06
3446 C 98.20027412271553 37.742402633927554 2.474882411069359 C 0.0 **** -0.24
3447 H 97.4851310207394 37.5532139811678 3.2757954889812595 H 0.0 **** 0.06
3448 H 97.74491380649962 37.49648931597335 1.5156226186315962 H 0.0 **** 0.06
3449 H 99.08641527109651 37.12592189409514 2.6260482025675174 H 0.0 **** 0.06
3450 H 98.48456056258044 38.79424743666789 2.4834510149163975 H 0.0 **** 0.06
3451 C 54.67745040800146 14.165935931314962 23.027351852642404 C 0.0 **** -0.24
3452 H 53.82046396526228 14.629453686644567 22.538343392200144 H 0.0 **** 0.06
3453 H 54.41253251976897 13.156915339233677 23.343452620007657 H 0.0 **** 0.06
3454 H 54.95995603436056 14.757304914856931 23.899030744735974 H 0.0 **** 0.06
3455 H 55.51385323600729 14.122764224281724 22.330981866623077 H 0.0 **** 0.06
3456 C 22.361549627627966 11.848574696430859 83.14978569268203 C 0.0 **** -0.24
3457 H 22.78684437412946 11.695472167568482 82.15789672262818 H 0.0 **** 0.06
3458 H 23.047355304064922 11.4592205174294 83.90286449139404 H 0.0 **** 0.06
3459 H 21.408268326249214 11.324848576412393 83.22080992967278 H 0.0 **** 0.06
3460 H 22.20488165059129 12.914109817084721 83.31706621414457 H 0.0 **** 0.06
3461 C 48.57686413691084 19.579090068811706 64.50868389337899 C 0.0 **** -0.24
3462 H 48.24490584151516 18.624673843822155 64.91805062481063 H 0.0 **** 0.06
3463 H 48.541925078342274 19.53919254899152 63.41971639613689 H 0.0 **** 0.06
3464 H 49.5982464626872 19.77740112371984 64.83239296550437 H 0.0 **** 0.06
3465 H 47.921923452342014 20.374297122044975 64.86497475927322 H 0.0 **** 0.06
3466 C 54.39254363745303 31.42384847712316 99.24013281871763 C 0.0 **** -0.24
3467 H 55.377440031954194 31.47542575235269 98.77663354265583 H 0.0 **** 0.06
3468 H 53.820608107752776 32.31367117085196 98.97512318347711 H 0.0 **** 0.06
3469 H 54.50259336027318 31.371341654048194 100.32340602350084 H 0.0 **** 0.06
3470 H 53.86939615874451 30.535944122472443 98.88530850019085 H 0.0 **** 0.06
3471 C 21.589532084260895 100.89719617611874 18.191584933725835 C 0.0 **** -0.24
3472 H 21.487956638388063 101.22456274342075 17.157353217967113 H 0.0 **** 0.06
3473 H 20.766089441762105 100.2277990263416 18.4435799337939 H 0.0 **** 0.06
3474 H 21.56879655223434 101.76445084868557 18.851468330691347 H 0.0 **** 0.06
3475 H 22.536033886146832 100.36968808989444 18.314411420276713 H 0.0 **** 0.06
3476 C 106.50409889830533 90.59582617955209 54.8361412953586 C 0.0 **** -0.24
3477 H 105.49074351221205 90.43130909236982 55.20386099172071 H 0.0 **** 0.06
3478 H 106.6791314334371 91.66616516040557 54.723910072139155 H 0.0 **** 0.06
3479 H 106.62311942244816 90.10466210311893 53.87015645160113 H 0.0 **** 0.06
3480 H 107.2194216281458 90.18185015066138 55.54580170708955 H 0.0 **** 0.06
3481 C 106.68400168082853 98.23766469916748 58.0304578249454 C 0.0 **** -0.24
3482 H 107.54247563666901 98.43190644256855 57.38773056620594 H 0.0 **** 0.06
3483 H 106.08127428606066 97.43803947927998 57.59922128380884 H 0.0 **** 0.06
3484 H 106.08198215829142 99.14232512060488 58.116798763766916 H 0.0 **** 0.06
3485 H 107.03221185840368 97.93813309508181 59.01955806345046 H 0.0 **** 0.06
3486 C 75.86674054618607 80.5552138342735 17.081459035414014 C 0.0 **** -0.24
3487 H 75.04324773962566 80.09251581682742 17.624471763818576 H 0.0 **** 0.06
3488 H 76.71386097228077 80.69128151207579 17.753433946536234 H 0.0 **** 0.06
3489 H 75.54864961104306 81.52392215606699 16.696195396867893 H 0.0 **** 0.06
3490 H 76.1599478694232 79.91253814912375 16.251479427623963 H 0.0 **** 0.06
3491 C 5.982524306589994 6.469390583272457 47.74640830473112 C 0.0 **** -0.24
3492 H 5.991820702436058 7.457060189031836 48.20595589884509 H 0.0 **** 0.06
3493 H 5.134646840727385 5.899795226121739 48.12795607967427 H 0.0 **** 0.06
3494 H 6.9086989204055556 5.948026152056798 47.98693359385101 H 0.0 **** 0.06
3495 H 5.892713985722594 6.5729717270938295 46.66474901510096 H 0.0 **** 0.06
3496 C 68.95514199064587 42.748854251013 20.57386217750002 C 0.0 **** -0.24
3497 H 69.33677602119815 42.668362163690915 19.555760880918967 H 0.0 **** 0.06
3498 H 68.92797315594385 43.79828639111162 20.868912715069484 H 0.0 **** 0.06
3499 H 69.60770814960983 42.19690813310439 21.250991904798752 H 0.0 **** 0.06
3500 H 67.94868353883987 42.33242596211733 20.619190016955542 H 0.0 **** 0.06
3501 C 2.0487319437802682 106.38598848652417 75.3350505469088 C 0.0 **** -0.24
3502 H 2.8793398745671936 106.73529676977564 75.94793462461723 H 0.0 **** 0.06
3503 H 2.3471511391105935 106.38382225313813 74.28619875772367 H 0.0 **** 0.06
3504 H 1.194432762838602 107.05040172812379 75.46845869599656 H 0.0 **** 0.06
3505 H 1.7744506663369464 105.37554747511633 75.63686246737416 H 0.0 **** 0.06
3506 C 27.200237195066165 86.4062658228365 4.7645476004638425 C 0.0 **** -0.24
3507 H 26.622299843792163 86.71479748847338 3.8931955596989667 H 0.0 **** 0.06
3508 H 28.175627608426197 86.89122353065835 4.743589547324774 H 0.0 **** 0.06
3509 H 27.331631485918876 85.32375871311427 4.74782357500699 H 0.0 **** 0.06
3510 H 26.670432567332995 86.693998803015 5.6720218229832255 H 0.0 **** 0.06
3511 C 88.61557768040421 91.01930890667589 30.534827682939863 C 0.0 **** -0.24
3512 H 88.22725885867652 91.11446159730355 29.520419861368083 H 0.0 **** 0.06
3513 H 89.59977795161478 90.55332778033677 30.504643625880533 H 0.0 **** 0.06
3514 H 87.93796635017918 90.40266701760405 31.125543697625744 H 0.0 **** 0.06
3515 H 88.69380817945034 92.00808580430711 30.986691557786358 H 0.0 **** 0.06
3516 C 41.68627106466792 42.039714422965176 62.41226799375275 C 0.0 **** -0.24
3517 H 42.30168380185222 42.53190166373594 63.164845283518304 H 0.0 **** 0.06
3518 H 42.329129840371365 41.55320444322342 61.67931689077875 H 0.0 **** 0.06
3519 H 41.06093146393047 42.7806761012568 61.912860368480324 H 0.0 **** 0.06
3520 H 41.053174185462765 41.29377885373566 62.89274088480835 H 0.0 **** 0.06
3521 C 9.592293355580694 1.8431741157840804 108.88102557925185 C 0.0 **** -0.24
3522 H 10.33974880759979 2.081781759818327 109.63821810070183 H 0.0 **** 0.06
3523 H 8.782774857539096 1.2728429598509905 109.33705291244866 H 0.0 **** 0.06
3524 H 10.053389155850653 1.2515482216761455 108.08909484948029 H 0.0 **** 0.06
3525 H 9.194912953825508 2.767035829784163 108.459650299902 H 0.0 **** 0.06
3526 C 2.9235274145892163 18.004428132491437 66.40183818609944 C 0.0 **** -0.24
3527 H 2.805555027850417 18.83654637604089 67.09686591347736 H 0.0 **** 0.06
3528 H 2.926452273366877 17.065816661237992 66.95687487988113 H 0.0 **** 0.06
3529 H 3.8653108046422346 18.11126066445656 65.86325708262302 H 0.0 **** 0.06
3530 H 2.096172620229126 18.00363400399619 65.69220155703971 H 0.0 **** 0.06
3531 C 11.067167493173883 69.60722437016541 0.41827635600998203 C 0.0 **** -0.24
3532 H 11.691555755577852 70.4382399507144 0.7443009960664373 H 0.0 **** 0.06
3533 H 11.68824515066214 68.72260561746057 0.2714362206181802 H 0.0 **** 0.06
3534 H 10.577403987381985 69.86675556545141 -0.5202778508234323 H 0.0 **** 0.06
3535 H 10.31332366682679 69.39972339465352 1.1773781514156632 H 0.0 **** 0.06
3536 C 29.274575332278104 15.29391151840646 83.48020114732026 C 0.0 **** -0.24
3537 H 28.35149153179676 15.442572026782983 82.91933207590955 H 0.0 **** 0.06
3538 H 29.912150834554197 14.586551918237063 82.94875061629904 H 0.0 **** 0.06
3539 H 29.038993492651812 14.9012182071464 84.46894826006451 H 0.0 **** 0.06
3540 H 29.793918079351194 16.24669999833118 83.58132452534085 H 0.0 **** 0.06
3541 C 57.81129266981719 43.52613680653229 63.6565998456382 C 0.0 **** -0.24
3542 H 56.7942268449072 43.14303201850848 63.73747346547907 H 0.0 **** 0.06
3543 H 58.48184279804747 42.90485813949218 64.2496470919366 H 0.0 **** 0.06
3544 H 57.84306468945968 44.551512865203335 64.02518527238647 H 0.0 **** 0.06
3545 H 58.1242556564857 43.50583882086332 62.612561577099086 H 0.0 **** 0.06
3546 C 66.35662912352973 27.652709033111762 54.81912671814948 C 0.0 **** -0.24
3547 H 67.4337749890268 27.661984935676344 54.98607425121301 H 0.0 **** 0.06
3548 H 66.08257902584057 26.754935806540715 54.26430372751861 H 0.0 **** 0.06
3549 H 66.07135173171741 28.53593675193656 54.24619092766653 H 0.0 **** 0.06
3550 H 65.84077454994161 27.659557354800086 55.778309596833594 H 0.0 **** 0.06
3551 C 17.939868336994493 8.90157715293995 64.47823528140464 C 0.0 **** -0.24
3552 H 17.643054457933772 9.44803431538287 65.37373282417245 H 0.0 **** 0.06
3553 H 17.48076608446894 9.363639603137642 63.60332601291256 H 0.0 **** 0.06
3554 H 17.610091197671977 7.86671410725009 64.55847335088657 H 0.0 **** 0.06
3555 H 19.025099331300055 8.930889729379032 64.37839432622425 H 0.0 **** 0.06
3556 C 106.84609460881636 43.61793131569132 36.12688303352979 C 0.0 **** -0.24
3557 H 106.10341306418587 43.84141650075299 36.89270495943077 H 0.0 **** 0.06
3558 H 106.43861802896856 42.88519606809798 35.42904228023522 H 0.0 **** 0.06
3559 H 107.74189452092088 43.21361069171609 36.59659252323445 H 0.0 **** 0.06
3560 H 107.09836396877961 44.531854952958035 35.58847656904328 H 0.0 **** 0.06
3561 C 102.71593906592699 100.43040733070006 78.08165718251583 C 0.0 **** -0.24
3562 H 102.01207989702654 99.90462388838841 77.43581291484357 H 0.0 **** 0.06
3563 H 102.17164553499083 100.92291016144782 78.8875667654334 H 0.0 **** 0.06
3564 H 103.25572969971898 101.175851558364 77.49817138367717 H 0.0 **** 0.06
3565 H 103.42402233788717 99.71787796837896 78.50418966056989 H 0.0 **** 0.06
3566 C 4.973538102585428 93.73507695879226 94.63000399012333 C 0.0 **** -0.24
3567 H 5.598137201983741 92.84557703066594 94.54239908021313 H 0.0 **** 0.06
3568 H 3.978449534030055 93.44722882671476 94.9724774024592 H 0.0 **** 0.06
3569 H 4.8971627231641985 94.22214852964362 93.65780708366906 H 0.0 **** 0.06
3570 H 5.420572418423941 94.42291003118646 95.34736839527558 H 0.0 **** 0.06
3571 C 91.85049563722195 27.223658826828242 4.116961770280227 C 0.0 **** -0.24
3572 H 91.96818015343656 28.22309198000916 4.535464394636861 H 0.0 **** 0.06
3573 H 90.93912573704277 27.183970885334617 3.5202143254258687 H 0.0 **** 0.06
3574 H 91.78762933980512 26.495898737618504 4.926481290440378 H 0.0 **** 0.06
3575 H 92.70898480327205 26.99119002915596 3.4855756588798243 H 0.0 **** 0.06
3576 C 9.964499478351973 4.464259944951976 0.33866176297243555 C 0.0 **** -0.24
3577 H 8.922134567640121 4.146925460040109 0.34355119144234436 H 0.0 **** 0.06
3578 H 10.423329682863125 4.2195048378470545 1.2967215330947965 H 0.0 **** 0.06
3579 H 10.01618745977672 5.540553857266886 0.17463282405337566 H 0.0 **** 0.06
3580 H 10.496521813709624 3.9497635625505154 -0.46222929901465193 H 0.0 **** 0.06
3581 C 73.64656488210176 60.799827749490845 100.58853806011881 C 0.0 **** -0.24
3582 H 73.27363162516798 61.82156202619778 100.66592430580766 H 0.0 **** 0.06
3583 H 72.80649306008803 60.11573366923457 100.46149695418923 H 0.0 **** 0.06
3584 H 74.19194819513297 60.542800861645546 101.4959326218423 H 0.0 **** 0.06
3585 H 74.31197418436437 60.72114314507492 99.72847762413673 H 0.0 **** 0.06
3586 C 22.340048380744975 108.01930351655204 36.70505279302734 C 0.0 **** -0.24
3587 H 22.664465537269535 108.16392300595737 35.67476379415021 H 0.0 **** 0.06
3588 H 22.885803836852887 107.18357228409877 37.14379309835029 H 0.0 **** 0.06
3589 H 21.270977191183476 107.80552572665636 36.722041619143496 H 0.0 **** 0.06
3590 H 22.538341632493825 108.92509686017894 37.27826475152585 H 0.0 **** 0.06
3591 C 97.9893960325443 3.152303405500504 61.11912702708537 C 0.0 **** -0.24
3592 H 98.12138829493098 2.0793002383760495 60.97501578758187 H 0.0 **** 0.06
3593 H 98.62815639375631 3.693326808262725 60.42156515116727 H 0.0 **** 0.06
3594 H 98.26085808053116 3.416416340103126 62.14160611572137 H 0.0 **** 0.06
3595 H 96.94750983578406 3.4174060170374503 60.939439827487206 H 0.0 **** 0.06
3596 C 106.31711784021053 67.4959488109501 93.86760042979554 C 0.0 **** -0.24
3597 H 106.39342126163154 66.48837037773094 94.27685981216118 H 0.0 **** 0.06
3598 H 105.51890744770367 68.03570530369535 94.37708725706858 H 0.0 **** 0.06
3599 H 106.09635030207585 67.43927348339787 92.80156884172101 H 0.0 **** 0.06
3600 H 107.26174497559742 68.02023901615678 94.01450557520724 H 0.0 **** 0.06
3601 C 28.14021683144901 23.074401467287487 78.78011709506791 C 0.0 **** -0.24
3602 H 27.984177286435397 23.894105487680008 79.48119176608833 H 0.0 **** 0.06
3603 H 27.745538709974824 23.35150077814893 77.80223728681477 H 0.0 **** 0.06
3604 H 27.624982336762855 22.184126100117965 79.14151430887495 H 0.0 **** 0.06
3605 H 29.20732551609788 22.866679846075613 78.69601265252237 H 0.0 **** 0.06
3606 C 11.68000443492275 52.40377853975679 46.2262635706024 C 0.0 **** -0.24
3607 H 11.49059166509278 53.394958048017706 45.81349396599523 H 0.0 **** 0.06
3608 H 10.93316772932576 52.17932196462018 46.98932256477293 H 0.0 **** 0.06
3609 H 12.673828366768703 52.38131816828222 46.67389989556721 H 0.0 **** 0.06
3610 H 11.621746281090282 51.661587744499485 45.43120856948161 H 0.0 **** 0.06
3611 C 79.37278102981065 101.53506659656816 109.85609505318206 C 0.0 **** -0.24
3612 H 78.39643056061428 101.63712896674019 110.32825253816443 H 0.0 **** 0.06
3613 H 80.08828772904582 102.1872006486185 110.35621007509167 H 0.0 **** 0.06
3614 H 79.2988355217754 101.81467492367062 108.80502179589502 H 0.0 **** 0.06
3615 H 79.70730499271247 100.5006896011867 109.93363000623708 H 0.0 **** 0.06
3616 C 6.215629295737472 51.54519652230568 88.81212827196416 C 0.0 **** -0.24
3617 H 6.494419652656035 51.53612215132927 87.7580844587034 H 0.0 **** 0.06
3618 H 7.019784512048432 51.10862788130916 89.40406401053431 H 0.0 **** 0.06
3619 H 5.304564815128117 50.9629680136948 88.95069671755294 H 0.0 **** 0.06
3620 H 6.04312096086332 52.57207826936737 89.13290613206266 H 0.0 **** 0.06
3621 C 91.596962140345 41.595800411954 13.1723291665663 C 0.0 **** -0.24
3622 H 91.57184615161333 40.95887524382408 14.057566051202244 H 0.0 **** 0.06
3623 H 91.22059062445169 42.58629911894923 13.429042143469246 H 0.0 **** 0.06
3624 H 90.97318702244416 41.1597050902935 12.392429701829741 H 0.0 **** 0.06
3625 H 92.62307659991393 41.67784510938381 12.813286637111432 H 0.0 **** 0.06
3626 C 106.06454213771809 28.14544387016666 90.50407297164352 C 0.0 **** -0.24
3627 H 106.25273293104618 27.10098936157975 90.25465212817329 H 0.0 **** 0.06
3628 H 106.5504810887351 28.386667706649874 91.44984734441388 H 0.0 **** 0.06
3629 H 104.98994925671872 28.308874488196864 90.59557921170665 H 0.0 **** 0.06
3630 H 106.46362369688663 28.784201828421175 89.71628689615565 H 0.0 **** 0.06
3631 C 78.55757463459136 71.07231687008947 65.82620995553492 C 0.0 **** -0.24
3632 H 79.36345024273862 70.34702333648376 65.9424234263297 H 0.0 **** 0.06
3633 H 78.42096217736378 71.61588409750638 66.76113211426383 H 0.0 **** 0.06
3634 H 77.63393347519838 70.55072475956122 65.5709091061866 H 0.0 **** 0.06
3635 H 78.81112977405809 71.77293202092264 65.0305002448527 H 0.0 **** 0.06
3636 C 11.80792617384131 52.395262728885996 85.5694530063389 C 0.0 **** -0.24
3637 H 12.3232967860869 53.33612675957795 85.76058830520856 H 0.0 **** 0.06
3638 H 11.931477742861631 51.733232813738084 86.42645016357248 H 0.0 **** 0.06
3639 H 12.22932410559234 51.924166745542976 84.68187368635235 H 0.0 **** 0.06
3640 H 10.747292584449028 52.58938586946877 85.40956138159487 H 0.0 **** 0.06
3641 C 49.21870001138039 91.607683413073 28.425009123532988 C 0.0 **** -0.24
3642 H 49.82782938322408 91.58702210973013 29.32857386401335 H 0.0 **** 0.06
3643 H 49.80697448443499 91.24156545693563 27.582800963540343 H 0.0 **** 0.06
3644 H 48.89660013092191 92.63014348970887 28.22729772139781 H 0.0 **** 0.06
3645 H 48.34462609610011 90.9713320760547 28.56155754976286 H 0.0 **** 0.06
3646 C 25.925413978694706 75.56742843118485 35.22677719266291 C 0.0 **** -0.24
3647 H 25.841941570348894 76.6478657600324 35.34477835371716 H 0.0 **** 0.06
3648 H 26.023695397002285 75.32541594786368 34.168306844961904 H 0.0 **** 0.06
3649 H 25.032505453766987 75.08885724549314 35.62871463358807 H 0.0 **** 0.06
3650 H 26.802748180011776 75.20990011291188 35.765223012222 H 0.0 **** 0.06
3651 C 75.30200966286688 103.45367947459926 53.95863132814594 C 0.0 **** -0.24
3652 H 74.60233956282711 103.85737127366448 53.2280443574422 H 0.0 **** 0.06
3653 H 75.00991578233722 102.43505568273443 54.21855552210826 H 0.0 **** 0.06
3654 H 75.29093332937643 104.07501042565627 54.85455874373298 H 0.0 **** 0.06
3655 H 76.30673228418146 103.44611588315092 53.53368417995722 H 0.0 **** 0.06
3656 C 79.97200320364806 19.70873017362868 38.893192245957984 C 0.0 **** -0.24
3657 H 79.48426382113888 20.330447350568107 38.14314976563812 H 0.0 **** 0.06
3658 H 79.72347115006048 20.077997459051147 39.88789531461834 H 0.0 **** 0.06
3659 H 81.05225112363178 19.746943310271888 38.75051795960946 H 0.0 **** 0.06
3660 H 79.6275727386147 18.679034593086868 38.79046704899028 H 0.0 **** 0.06
3661 C 15.884330562895627 16.978786831613547 66.14828859206868 C 0.0 **** -0.24
3662 H 14.97798058996176 16.727198721103633 66.69785097687246 H 0.0 **** 0.06
3663 H 15.630682885319317 17.614147352211063 65.29996755938124 H 0.0 **** 0.06
3664 H 16.35658426840706 16.064040745838753 65.78877528940417 H 0.0 **** 0.06
3665 H 16.573424588679075 17.508211702549517 66.80744300344038 H 0.0 **** 0.06
3666 C 65.61442005502215 22.421769456759364 57.44417896549197 C 0.0 **** -0.24
3667 H 64.74424829717442 21.767936297750083 57.38014710848728 H 0.0 **** 0.06
3668 H 66.51567323353964 21.85032091142247 57.22339632908739 H 0.0 **** 0.06
3669 H 65.68352522598535 22.83531555816947 58.45107365019055 H 0.0 **** 0.06
3670 H 65.5116258795862 23.233791918234687 56.72457240968413 H 0.0 **** 0.06
3671 C 21.5182546697539 85.06143716393314 36.275336535563156 C 0.0 **** -0.24
3672 H 21.450037706917527 84.52871335012914 35.32564783429933 H 0.0 **** 0.06
3673 H 20.515175146479237 85.23325172593567 36.66733783781035 H 0.0 **** 0.06
3674 H 22.01720392231664 86.0179022140503 36.119391087843326 H 0.0 **** 0.06
3675 H 22.088950874643274 84.46382261763952 36.98596331084832 H 0.0 **** 0.06
3676 C 20.326304180918044 84.23263287022785 30.372927942385672 C 0.0 **** -0.24
3677 H 20.0427734288848 84.99468166310344 31.098179368578172 H 0.0 **** 0.06
3678 H 21.260535234940306 84.51963030588539 29.889677933867375 H 0.0 **** 0.06
3679 H 19.541875204829665 84.13775377055973 29.62091134811962 H 0.0 **** 0.06
3680 H 20.457905496768916 83.27760426076107 30.88208725700187 H 0.0 **** 0.06
3681 C 69.51612968935245 100.66320014316094 28.68188750839107 C 0.0 **** -0.24
3682 H 69.5629712015072 100.6964835796903 29.769921868148884 H 0.0 **** 0.06
3683 H 68.89645719068275 101.48288130378103 28.3200346984641 H 0.0 **** 0.06
3684 H 69.08486037760238 99.71347360577127 28.36579415832597 H 0.0 **** 0.06
3685 H 70.52161354526072 100.75874596787702 28.272578431459266 H 0.0 **** 0.06
3686 C 90.5617984139202 35.7717051486994 82.20526515224667 C 0.0 **** -0.24
3687 H 90.7943230037103 35.0141057959697 81.45793109792692 H 0.0 **** 0.06
3688 H 91.47322765852036 36.05239882012543 82.73315389954074 H 0.0 **** 0.06
3689 H 89.83837114999264 35.37188717822224 82.91491312883366 H 0.0 **** 0.06
3690 H 90.14213854405972 36.649574623359086 81.7133489566762 H 0.0 **** 0.06
3691 C 108.97053581454735 59.43797615820726 53.66566069561 C 0.0 **** -0.24
3692 H 108.1959565721883 58.805031096669595 53.23267307850327 H 0.0 **** 0.06
3693 H 108.62431761151068 60.47121629115078 53.68814420213923 H 0.0 **** 0.06
3694 H 109.87512449771545 59.369960143221476 53.061973003400794 H 0.0 **** 0.06
3695 H 109.1861260570536 59.10432147796217 54.68070411056141 H 0.0 **** 0.06
3696 C 33.01398863294327 7.842067271005476 94.28551134256072 C 0.0 **** -0.24
3697 H 34.07980219621197 7.832886567204639 94.05766734453941 H 0.0 **** 0.06
3698 H 32.852088963218584 8.327284336438012 95.24805777269388 H 0.0 **** 0.06
3699 H 32.64218321650092 6.8181249355720865 94.32693082339107 H 0.0 **** 0.06
3700 H 32.48156716473349 8.389420999870609 93.50724529494852 H 0.0 **** 0.06
3701 C 91.36209371669557 50.00897414588592 72.48640794223132 C 0.0 **** -0.24
3702 H 92.24177985117237 50.321569109881764 73.049743957158 H 0.0 **** 0.06
3703 H 90.96119356857807 49.09241526311141 72.91782022516168 H 0.0 **** 0.06
3704 H 91.64147286237892 49.8309329393486 71.44740630002721 H 0.0 **** 0.06
3705 H 90.60622163939487 50.79281495141977 72.5300508518273 H 0.0 **** 0.06
3706 C 15.550558758886641 8.790174990124143 21.442532302257263 C 0.0 **** -0.24
3707 H 16.216833503509996 7.947024411864703 21.624828206051973 H 0.0 **** 0.06
3708 H 15.81523670458014 9.611475818612774 22.109350360611217 H 0.0 **** 0.06
3709 H 14.52017963457304 8.486350265861248 21.631042780733736 H 0.0 **** 0.06
3710 H 15.650408045280734 9.114986954633537 20.406927149763703 H 0.0 **** 0.06
3711 C 9.566856296206236 92.29770851265431 2.4305834191845603 C 0.0 **** -0.24
3712 H 10.446149737072094 91.65867042913466 2.3442460078256078 H 0.0 **** 0.06
3713 H 9.806693044245298 93.16303969348915 3.0496682987616968 H 0.0 **** 0.06
3714 H 8.753342216779266 91.736948958426 2.889388638354566 H 0.0 **** 0.06
3715 H 9.263227461318074 92.63314955999469 1.438712667980547 H 0.0 **** 0.06
3716 C 66.58307486228097 61.43274953758976 16.094301183476418 C 0.0 **** -0.24
3717 H 67.22182145707194 61.06872876233075 16.89840586810186 H 0.0 **** 0.06
3718 H 65.54542429419013 61.43596836358546 16.428713642157803 H 0.0 **** 0.06
3719 H 66.683418342609 60.780883570151275 15.226970430008251 H 0.0 **** 0.06
3720 H 66.88134344108738 62.445901085338846 15.824411322729233 H 0.0 **** 0.06
3721 C 4.181599172936217 12.965451452800124 85.6609459657525 C 0.0 **** -0.24
3722 H 4.651697639526347 12.467361259924473 86.50857046732294 H 0.0 **** 0.06
3723 H 4.325963210080232 12.366872621020775 84.76182911524558 H 0.0 **** 0.06
3724 H 4.633933639437714 13.947921279995882 85.52034590447872 H 0.0 **** 0.06
3725 H 3.114951461396828 13.081978986169759 85.85378461680479 H 0.0 **** 0.06
3726 C 69.68897340526425 39.22109988901033 12.059683307259235 C 0.0 **** -0.24
3727 H 69.66193884321598 38.248709102506666 12.55136818485137 H 0.0 **** 0.06
3728 H 68.88898412553266 39.27756552095792 11.321711424341231 H 0.0 **** 0.06
3729 H 70.65093208800448 39.35101144748768 11.565494953425087 H 0.0 **** 0.06
3730 H 69.55316780921694 40.007300122658904 12.802843318019654 H 0.0 **** 0.06
3731 C 110.5619019167022 33.98644363466649 106.82078857471747 C 0.0 **** -0.24
3732 H 109.85767684094836 34.43829224347478 106.12091665743759 H 0.0 **** 0.06
3733 H 110.13554432432767 34.00043399710194 107.82410519025939 H 0.0 **** 0.06
3734 H 111.49347786798785 34.553001456591915 106.81391458686207 H 0.0 **** 0.06
3735 H 110.76006172375179 32.95738627225288 106.52275784721614 H 0.0 **** 0.06
3736 C 14.865789186514142 51.72386253453443 95.06259959515364 C 0.0 **** -0.24
3737 H 14.361323115076388 51.087481355855935 95.79001195054343 H 0.0 **** 0.06
3738 H 14.607720384551182 52.766283348533804 95.25156550298868 H 0.0 **** 0.06
3739 H 14.550109305162035 51.44758196615357 94.05722010214083 H 0.0 **** 0.06
3740 H 15.945001976535835 51.59398650813973 95.15359844789799 H 0.0 **** 0.06
3741 C 51.30427596343199 3.1929975734491904 64.52515241033505 C 0.0 **** -0.24
3742 H 52.21919238582143 2.6047715820344592 64.45566971350829 H 0.0 **** 0.06
3743 H 50.69415238735496 3.02013627845389 63.63794274783817 H 0.0 **** 0.06
3744 H 51.55655418296851 4.250640397463826 64.5917933715579 H 0.0 **** 0.06
3745 H 50.74693403696213 2.8954233759302497 65.41299263947643 H 0.0 **** 0.06
3746 C 29.034066542685423 75.5367256292921 106.17749516216521 C 0.0 **** -0.24
3747 H 29.41863391347647 74.57603855681208 105.8338586421932 H 0.0 **** 0.06
3748 H 28.316068225769612 75.92010041495422 105.4524207322922 H 0.0 **** 0.06
3749 H 29.858993496878867 76.24126587471477 106.2817365971695 H 0.0 **** 0.06
3750 H 28.543077328095336 75.4059295841297 107.14207680324495 H 0.0 **** 0.06
3751 C 83.29311590487458 101.42798716786487 103.84618865636878 C 0.0 **** -0.24
3752 H 83.09585886770458 102.10240841277418 103.01288056195682 H 0.0 **** 0.06
3753 H 84.19908633011985 100.85611191331954 103.64387937260886 H 0.0 **** 0.06
3754 H 82.45183816193182 100.74611722715677 103.96767463232169 H 0.0 **** 0.06
3755 H 83.426153324036 102.00865051350345 104.75859307225096 H 0.0 **** 0.06
3756 C 4.329126723489798 107.28510000156578 17.204918030267066 C 0.0 **** -0.24
3757 H 5.148683737377304 106.98361216404678 16.551529794917286 H 0.0 **** 0.06
3758 H 4.089948547325831 106.4679134354177 17.885671777364934 H 0.0 **** 0.06
3759 H 3.4541129792802803 107.52484763932173 16.60168283979077 H 0.0 **** 0.06
3760 H 4.627126544411897 108.16228607530167 17.778631718072347 H 0.0 **** 0.06
3761 C 37.231432642048034 67.8394413093418 6.820000668563068 C 0.0 **** -0.24
3762 H 38.09278868613638 67.190403681558 6.665645234983913 H 0.0 **** 0.06
3763 H 37.37141793591104 68.76776563342867 6.266594149467096 H 0.0 **** 0.06
3764 H 37.13063113037965 68.0619963371031 7.882478936215534 H 0.0 **** 0.06
3765 H 36.3297446584913 67.33825903783969 6.467345217205434 H 0.0 **** 0.06
3766 C 106.88837432096621 4.145961140190423 3.515491379558682 C 0.0 **** -0.24
3767 H 106.67541225664284 3.817543179221161 2.4981981408292455 H 0.0 **** 0.06
3768 H 107.75206977265861 3.6013341607704206 3.899691141582821 H 0.0 **** 0.06
3769 H 106.02316157234486 3.949697708148051 4.14866457271971 H 0.0 **** 0.06
3770 H 107.1033416022829 5.214854509474549 3.514150787631948 H 0.0 **** 0.06
3771 C 54.79747657908878 97.86769180676976 54.29489269356488 C 0.0 **** -0.24
3772 H 53.71447988164279 97.9924849529379 54.29232874421105 H 0.0 **** 0.06
3773 H 55.07456114722128 97.07882023863226 53.595779319093914 H 0.0 **** 0.06
3774 H 55.130283435420544 97.5989174166904 55.29764574196515 H 0.0 **** 0.06
3775 H 55.2706313305873 98.80273789502331 53.99424980008033 H 0.0 **** 0.06
3776 C 55.92470449666105 39.96247626986306 60.87720834204346 C 0.0 **** -0.24
3777 H 56.54573485450173 39.39791950245572 60.18061394037396 H 0.0 **** 0.06
3778 H 55.3883132525236 39.27127957675165 61.527637675450435 H 0.0 **** 0.06
3779 H 55.20953193010561 40.56549208292776 60.31815035036669 H 0.0 **** 0.06
3780 H 56.55646035079932 40.61418131616125 61.47970377064367 H 0.0 **** 0.06
3781 C 29.722699073578212 59.50114041239823 1.9166768728025518 C 0.0 **** -0.24
3782 H 29.207622007092993 59.244216143658605 0.990684269486545 H 0.0 **** 0.06
3783 H 29.957827005442425 58.58894464756628 2.465835790843215 H 0.0 **** 0.06
3784 H 29.07896198684938 60.13648701421033 2.5252185761881636 H 0.0 **** 0.06
3785 H 30.645132754971996 60.03333373376108 1.6835779210279957 H 0.0 **** 0.06
3786 C 99.30704809567521 80.25631815208135 52.279613823537375 C 0.0 **** -0.24
3787 H 99.33034088525028 80.30599849171102 51.19123980016349 H 0.0 **** 0.06
3788 H 99.87077327698861 79.38572797235699 52.615559376188855 H 0.0 **** 0.06
3789 H 98.27380375070788 80.17441336731292 52.6176012249166 H 0.0 **** 0.06
3790 H 99.75439472390809 81.1603563159876 52.693556762703565 H 0.0 **** 0.06
3791 C 53.41366917044863 34.28037687402289 32.52272249314649 C 0.0 **** -0.24
3792 H 52.96044332480298 34.10231186502881 33.49815211202696 H 0.0 **** 0.06
3793 H 53.66967121590582 35.33659765944145 32.42843869919898 H 0.0 **** 0.06
3794 H 52.706871345770395 34.00702684718681 31.738740752110346 H 0.0 **** 0.06
3795 H 54.316262119728435 33.677264356938736 32.42586189094885 H 0.0 **** 0.06
3796 C 101.32385723174816 64.98885523201949 103.06529874535815 C 0.0 **** -0.24
3797 H 100.57832266202858 65.7771701818047 103.17236652022962 H 0.0 **** 0.06
3798 H 102.2115829745703 65.24726378958286 103.64311946597297 H 0.0 **** 0.06
3799 H 101.59271855829383 64.88414753776692 102.01382613280316 H 0.0 **** 0.06
3800 H 100.91319401285517 64.04800639733526 103.43118520747294 H 0.0 **** 0.06
3801 C 98.78277765136889 72.35524748353896 75.60197510015887 C 0.0 **** -0.24
3802 H 98.51497548138735 73.23977569010071 75.02457181719429 H 0.0 **** 0.06
3803 H 98.5099409646202 72.50761850923283 76.64719710882724 H 0.0 **** 0.06
3804 H 99.85722485633443 72.18549646519887 75.52748642717651 H 0.0 **** 0.06
3805 H 98.25031689289291 71.48967484017533 75.20948280077988 H 0.0 **** 0.06
3806 C 104.04782585154365 10.296709441053508 69.56149843450055 C 0.0 **** -0.24
3807 H 103.5113882284549 10.525533323742934 70.4818847639844 H 0.0 **** 0.06
3808 H 104.02614634147454 11.165722438333688 68.90378713918625 H 0.0 **** 0.06
3809 H 103.57343270956966 9.451573351678093 69.06381398294451 H 0.0 **** 0.06
3810 H 105.08188146800197 10.04582304476881 69.79707370976712 H 0.0 **** 0.06
3811 C 51.82556892775176 38.6070680226012 66.1367962978739 C 0.0 **** -0.24
3812 H 52.117043343267255 39.01877032686366 67.10368081571835 H 0.0 **** 0.06
3813 H 51.73839188694484 37.52341261759386 66.21650744259745 H 0.0 **** 0.06
3814 H 52.58258756529378 38.857285556737 65.39287644325475 H 0.0 **** 0.06
3815 H 50.86699250324074 39.02915877144895 65.83643763433176 H 0.0 **** 0.06
3816 C 57.21598669936475 66.96429972918091 50.547491469107285 C 0.0 **** -0.24
3817 H 57.234518144380104 66.15423586244219 51.277021374064816 H 0.0 **** 0.06
3818 H 57.67587111596234 67.85231916016184 50.97990041030022 H 0.0 **** 0.06
3819 H 56.18328742405828 67.18478454577149 50.27655715320088 H 0.0 **** 0.06
3820 H 57.768422712422705 66.66399479242111 49.65793986507765 H 0.0 **** 0.06
3821 C 100.94537547719008 74.12345386365918 110.03530204513896 C 0.0 **** -0.24
3822 H 101.43801581166004 73.92802147859351 109.08312748842486 H 0.0 **** 0.06
3823 H 100.23392275658288 73.32451522849207 110.24747858709219 H 0.0 **** 0.06
3824 H 100.41710582250377 75.07535725338298 109.9811094116959 H 0.0 **** 0.06
3825 H 101.69142662078893 74.16656800204359 110.82877201377896 H 0.0 **** 0.06
3826 C 73.3906044258743 92.61723652815672 13.325974310276195 C 0.0 **** -0.24
3827 H 74.1168635562147 92.39956357750333 14.109522603672545 H 0.0 **** 0.06
3828 H 73.01811078924726 91.68244719837497 12.906927611904948 H 0.0 **** 0.06
3829 H 73.8688720077084 93.20288918296086 12.540170342424545 H 0.0 **** 0.06
3830 H 72.56079733176648 93.18424201146235 13.74735973602823 H 0.0 **** 0.06
3831 C 7.689360077193449 94.74982819269617 51.13039261838992 C 0.0 **** -0.24
3832 H 8.717546013268517 94.44842271385654 51.332427730511654 H 0.0 **** 0.06
3833 H 7.679891664231787 95.76749512723157 50.73790035614536 H 0.0 **** 0.06
3834 H 7.112418863610159 94.71068467124344 52.05363272008151 H 0.0 **** 0.06
3835 H 7.250006862657473 94.07306105304735 50.39768618784734 H 0.0 **** 0.06
3836 C 74.6550846610312 37.80495524312883 62.94228474089721 C 0.0 **** -0.24
3837 H 75.09134160156503 38.35689037954802 62.11040905195546 H 0.0 **** 0.06
3838 H 75.44982986124492 37.3391097647536 63.52544579864855 H 0.0 **** 0.06
3839 H 73.98814379759773 37.03377630970505 62.55675306633975 H 0.0 **** 0.06
3840 H 74.09201148783049 38.48903466800681 63.57646817550085 H 0.0 **** 0.06
3841 C 90.76334141740452 109.45064273578845 79.83533171157235 C 0.0 **** -0.24
3842 H 90.88798132222627 110.44645028823518 79.41051066550344 H 0.0 **** 0.06
3843 H 91.61520691327786 109.21964981674526 80.47496534354799 H 0.0 **** 0.06
3844 H 90.70354148699107 108.71725593026488 79.03078430770148 H 0.0 **** 0.06
3845 H 89.8471396163772 109.41887016180729 80.42427436939752 H 0.0 **** 0.06
3846 C 32.26001317107648 22.985804329903814 61.198620120942536 C 0.0 **** -0.24
3847 H 31.87316608270035 21.972221946920804 61.31353278604382 H 0.0 **** 0.06
3848 H 31.454096396056258 23.647676559914363 60.883307610610544 H 0.0 **** 0.06
3849 H 33.04967511362665 22.98914428828436 60.447700977170726 H 0.0 **** 0.06
3850 H 32.66207033542878 23.33077247942737 62.15109465185466 H 0.0 **** 0.06
3851 C 5.8366845716232945 59.64659164277782 47.49455967401544 C 0.0 **** -0.24
3852 H 6.804469014124663 59.27319685845214 47.15878538454099 H 0.0 **** 0.06
3853 H 5.988060266620536 60.45878732666 48.20576450823748 H 0.0 **** 0.06
3854 H 5.2834816556785285 58.83966186642863 47.97534716640463 H 0.0 **** 0.06
3855 H 5.271796828008306 60.012604833833564 46.63772487722605 H 0.0 **** 0.06
3856 C 68.11791547069444 16.33608057180055 73.05656691607945 C 0.0 **** -0.24
3857 H 68.51309881662705 16.546866785918013 74.05072840689388 H 0.0 **** 0.06
3858 H 67.06107961077568 16.080816908148506 73.13196015884701 H 0.0 **** 0.06
3859 H 68.66460322833862 15.501200001902049 72.61905506301308 H 0.0 **** 0.06
3860 H 68.23546861481034 17.217647858136786 72.42607970017062 H 0.0 **** 0.06
3861 C 21.072122457766568 56.52062314071736 88.15914390602728 C 0.0 **** -0.24
3862 H 22.121819541847287 56.47784615607959 87.86946845303862 H 0.0 **** 0.06
3863 H 20.56657399207262 57.29236736070667 87.57784588567814 H 0.0 **** 0.06
3864 H 20.997855653127147 56.757195764886205 89.2203189813425 H 0.0 **** 0.06
3865 H 20.603069343503876 55.555305405379684 87.96781801824699 H 0.0 **** 0.06
3866 C 49.09137460759061 68.05188574309423 5.44968864985708 C 0.0 **** -0.24
3867 H 48.72351053437741 68.03790834636906 4.423647034344128 H 0.0 **** 0.06
3868 H 49.99261489180952 68.66268283146752 5.504191929846627 H 0.0 **** 0.06
3869 H 49.32079711006361 67.03438972545017 5.766271820600366 H 0.0 **** 0.06
3870 H 48.32765244528344 68.47276812748967 6.1043200362024095 H 0.0 **** 0.06
3871 C 85.12505719236907 0.9123391799855085 57.807554206720425 C 0.0 **** -0.24
3872 H 86.17564917092659 0.7768512485063468 57.551905591760885 H 0.0 **** 0.06
3873 H 84.71443140983871 -0.03264397754298898 58.16638863153699 H 0.0 **** 0.06
3874 H 84.57505209418932 1.2358259693083937 56.92386624231085 H 0.0 **** 0.06
3875 H 85.03584484435112 1.6667278399519034 58.58889447246179 H 0.0 **** 0.06
3876 C 4.466187469711969 37.614053432620665 28.04756761381185 C 0.0 **** -0.24
3877 H 4.173309945438604 37.04118759085105 28.927354638392217 H 0.0 **** 0.06
3878 H 5.543970840758718 37.77581681316855 28.062276130948923 H 0.0 **** 0.06
3879 H 3.9541426526463397 38.576201845737614 28.05342088274356 H 0.0 **** 0.06
3880 H 4.193577312838599 37.062426511020135 27.148483570958412 H 0.0 **** 0.06
3881 C 11.581614980043412 47.54575841285299 86.544615873636 C 0.0 **** -0.24
3882 H 10.634334848484201 48.02072083956176 86.80120077312704 H 0.0 **** 0.06
3883 H 11.983072652004637 48.0017196318872 85.63825117883113 H 0.0 **** 0.06
3884 H 11.419785191529911 46.48166140656335 86.37490620442084 H 0.0 **** 0.06
3885 H 12.2879194854371 47.680310724447565 87.36297293586803 H 0.0 **** 0.06
3886 C 6.653449466028505 20.619621008254626 53.27785850056756 C 0.0 **** -0.24
3887 H 6.678975514945975 21.427111798772444 52.546464795324056 H 0.0 **** 0.06
3888 H 5.634276940899738 20.241653322459683 53.36748885189951 H 0.0 **** 0.06
3889 H 6.988297401983331 20.995717287350942 54.24480896654822 H 0.0 **** 0.06
3890 H 7.312761955636745 19.8148537767442 52.95277009404154 H 0.0 **** 0.06
3891 C 84.67116274172818 28.411109456054078 83.11095984608977 C 0.0 **** -0.24
3892 H 85.48163667935529 27.899031577697315 83.6294885027058 H 0.0 **** 0.06
3893 H 84.12883338975873 27.697457938484206 82.49112672933767 H 0.0 **** 0.06
3894 H 85.0839777001705 29.200098073371436 82.48262037981992 H 0.0 **** 0.06
3895 H 83.99132867605314 28.84821042359144 83.84250214380752 H 0.0 **** 0.06
3896 C 90.51986837991564 16.410351082722286 109.35780776735781 C 0.0 **** -0.24
3897 H 90.35702849809658 16.52666452586982 108.28697630611119 H 0.0 **** 0.06
3898 H 90.60735024640559 15.350540200780443 109.59909514387705 H 0.0 **** 0.06
3899 H 89.67654809289161 16.838738642367105 109.90150422223266 H 0.0 **** 0.06
3900 H 91.43647472843239 16.92619087765908 109.64407310719498 H 0.0 **** 0.06
3901 C 13.674158530746183 32.57005770024125 58.76944421731076 C 0.0 **** -0.24
3902 H 13.030226946103653 31.698448296102185 58.89430407924209 H 0.0 **** 0.06
3903 H 14.705951867446174 32.24329801529086 58.63693236139841 H 0.0 **** 0.06
3904 H 13.603289069169875 33.20350643056281 59.65273741666019 H 0.0 **** 0.06
3905 H 13.355293455647029 33.13274640102418 57.892217788468116 H 0.0 **** 0.06
3906 C 90.65662597895056 42.27373014488926 4.89675284371225 C 0.0 **** -0.24
3907 H 89.60259039150662 41.99622468899316 4.872784992853781 H 0.0 **** 0.06
3908 H 90.77062379276344 43.21786006728853 5.429879418653286 H 0.0 **** 0.06
3909 H 91.02618239130555 42.38362526486553 3.8771696654901007 H 0.0 **** 0.06
3910 H 91.22512686435658 41.497015761718195 5.408197112033179 H 0.0 **** 0.06
3911 C 99.19058920232571 71.52439030156017 50.33767473783894 C 0.0 **** -0.24
3912 H 99.48127035444166 70.75637912175523 51.0541606110275 H 0.0 **** 0.06
3913 H 98.13136941477454 71.75239754026137 50.46090186000072 H 0.0 **** 0.06
3914 H 99.36905437492126 71.16165406853723 49.32482460131962 H 0.0 **** 0.06
3915 H 99.77993397837167 72.42502281733775 50.51064743075409 H 0.0 **** 0.06
3916 C 33.86598263402499 24.942210231255544 87.87251500675842 C 0.0 **** -0.24
3917 H 34.05339270169958 25.81703940931858 88.4955905528576 H 0.0 **** 0.06
3918 H 34.668311078626175 24.21735506220717 88.01229272992686 H 0.0 **** 0.06
3919 H 33.82777595052647 25.245326913842046 86.82563902675975 H 0.0 **** 0.06
3920 H 32.91443554418038 24.492702638156132 88.15545981391676 H 0.0 **** 0.06
3921 C 65.56500353477217 15.537246869216432 35.850127448056185 C 0.0 **** -0.24
3922 H 65.27658289787648 15.117841403087638 34.88610600681204 H 0.0 **** 0.06
3923 H 65.75049089476013 16.606100975443056 35.73880751183765 H 0.0 **** 0.06
3924 H 66.47121169395135 15.04547238177696 36.204259310130396 H 0.0 **** 0.06
3925 H 64.76120704006388 15.380529436305977 36.56914312902654 H 0.0 **** 0.06
3926 C 87.45922968018488 78.19226356849548 22.351514163559443 C 0.0 **** -0.24
3927 H 87.80538934271505 79.0607670163383 21.79065677506435 H 0.0 **** 0.06
3928 H 86.79787128441848 77.5941648158345 21.72373335573559 H 0.0 **** 0.06
3929 H 86.91838457060146 78.52399239732563 23.237557198393063 H 0.0 **** 0.06
3930 H 88.31612853555424 77.58962513904407 22.653990689827765 H 0.0 **** 0.06
3931 C 26.694192920706257 102.0951272574581 19.3424080746436 C 0.0 **** -0.24
3932 H 25.629008400071257 101.87865782517753 19.254126069636527 H 0.0 **** 0.06
3933 H 26.947881594392953 102.24226632775606 20.392638967056314 H 0.0 **** 0.06
3934 H 26.928580703596708 102.99945446006268 18.781177827193943 H 0.0 **** 0.06
3935 H 27.268512766708966 101.2595842497139 18.942652759164304 H 0.0 **** 0.06
3936 C 109.1103801413151 91.16432601648681 108.7838487960685 C 0.0 **** -0.24
3937 H 108.82397904831457 90.21265061471524 108.33529543685631 H 0.0 **** 0.06
3938 H 109.85872759230479 91.64897130226575 108.15729972417671 H 0.0 **** 0.06
3939 H 109.52614475034736 90.98742711432749 109.77570578756968 H 0.0 **** 0.06
3940 H 108.2332836807979 91.80541847725755 108.86633477765693 H 0.0 **** 0.06
3941 C 27.86253375733787 55.27131855164433 13.534576227270463 C 0.0 **** -0.24
3942 H 27.838221743239387 54.92246228154613 12.5021833941953 H 0.0 **** 0.06
3943 H 27.257951295341115 54.61004481036284 14.155020261801724 H 0.0 **** 0.06
3944 H 27.4633603839805 56.28439290484761 13.583878397865305 H 0.0 **** 0.06
3945 H 28.891396873047086 55.26802311235153 13.894182331428738 H 0.0 **** 0.06
3946 C 88.16725349780951 79.67881683735988 29.462959086803608 C 0.0 **** -0.24
3947 H 87.77941660925765 78.97860244840228 28.723013077991283 H 0.0 **** 0.06
3948 H 87.70829365996866 79.4754680783235 30.430805620280694 H 0.0 **** 0.06
3949 H 87.9348349030156 80.69854901269827 29.15636553247751 H 0.0 **** 0.06
3950 H 89.24819144581721 79.56099165503349 29.54111359146475 H 0.0 **** 0.06
3951 C 3.5786119365254763 88.67254298731928 107.83407945144972 C 0.0 **** -0.24
3952 H 3.5732156186125366 89.62903172429449 107.31169559679867 H 0.0 **** 0.06
3953 H 4.201822201872773 88.7485978648774 108.72473388459284 H 0.0 **** 0.06
3954 H 3.9785891556892494 87.90121375653463 107.17479176879856 H 0.0 **** 0.06
3955 H 2.561058493658365 88.4104585587548 108.1236178195682 H 0.0 **** 0.06
3956 C 8.61523302072203 101.62491574999514 76.42050179892446 C 0.0 **** -0.24
3957 H 8.070838618281584 100.81105008673394 76.89850504646336 H 0.0 **** 0.06
3958 H 9.061200056098357 101.26718971554038 75.49148117940985 H 0.0 **** 0.06
3959 H 9.400623076586896 101.97977347819395 77.08788114187382 H 0.0 **** 0.06
3960 H 7.927133832098036 102.44171449037272 76.20221513985287 H 0.0 **** 0.06
3961 C 85.8170536302078 79.71342567964177 43.990226207803744 C 0.0 **** -0.24
3962 H 85.39105602223876 78.7403496295621 44.233392281275194 H 0.0 **** 0.06
3963 H 85.03308541742351 80.36661170336248 43.605222751861355 H 0.0 **** 0.06
3964 H 86.59232477738755 79.59182625771246 43.234513364220476 H 0.0 **** 0.06
3965 H 86.2499409037033 80.15406859893795 44.88764645411295 H 0.0 **** 0.06
3966 C 77.20428527018748 68.42689892807711 28.12657989177748 C 0.0 **** -0.24
3967 H 76.72632684899257 68.66081350288026 27.174533924426157 H 0.0 **** 0.06
3968 H 76.44582707957373 68.12152760683618 28.846913304338187 H 0.0 **** 0.06
3969 H 77.72460206794248 69.30944975410426 28.497135073395015 H 0.0 **** 0.06
3970 H 77.91951230955375 67.61658675800041 27.983659546611335 H 0.0 **** 0.06
3971 C 74.95015479954239 68.55848416571331 66.79435101508437 C 0.0 **** -0.24
3972 H 74.33858979858381 68.78904322026506 67.6666694799033 H 0.0 **** 0.06
3973 H 75.64793333579588 67.75721859231703 67.04215625907128 H 0.0 **** 0.06
3974 H 75.50686820726827 69.44681505307338 66.49619477957037 H 0.0 **** 0.06
3975 H 74.30672467568915 68.23955607267379 65.97439536014457 H 0.0 **** 0.06
3976 C 81.87124215704586 98.69128447884867 5.303444422391124 C 0.0 **** -0.24
3977 H 82.34484542874748 98.37363366977348 6.232294587586722 H 0.0 **** 0.06
3978 H 82.46607417354267 99.481736572952 4.844873672886507 H 0.0 **** 0.06
3979 H 80.86986361030432 99.06516018480488 5.516157089219291 H 0.0 **** 0.06
3980 H 81.80498950905772 97.8434721256155 4.6218892070778566 H 0.0 **** 0.06
3981 C 26.214429492689163 44.41777684014363 44.21553210464032 C 0.0 **** -0.24
3982 H 25.25763775136886 44.9400140572796 44.24559261025493 H 0.0 **** 0.06
3983 H 27.012566358995315 45.10498284984578 44.49574302355984 H 0.0 **** 0.06
3984 H 26.391830683915856 44.04527220348871 43.20673141316851 H 0.0 **** 0.06
3985 H 26.19242835272047 43.58136446725575 44.913701134532914 H 0.0 **** 0.06
3986 C 73.63841021391696 52.037080839457644 87.2791255028576 C 0.0 **** -0.24
3987 H 74.6082873773658 51.6596319271161 86.95721826410278 H 0.0 **** 0.06
3988 H 73.60982898088183 53.12025620255912 87.15096506141646 H 0.0 **** 0.06
3989 H 73.48449464651696 51.79248849962262 88.33007046434318 H 0.0 **** 0.06
3990 H 72.85155321865149 51.5789343319234 86.67959018476856 H 0.0 **** 0.06
3991 C 17.13064692225349 82.99557918465294 5.796715362092073 C 0.0 **** -0.24
3992 H 16.270825767158744 82.57302612548735 6.316652116905999 H 0.0 **** 0.06
3993 H 16.920676699403316 84.03072941911375 5.529204272038214 H 0.0 **** 0.06
3994 H 17.326673012530414 82.41855389122684 4.89220865367912 H 0.0 **** 0.06
3995 H 18.003113293768497 82.95730437350397 6.448710135043484 H 0.0 **** 0.06
3996 C 20.10953032012067 81.07772653289152 26.218546455308854 C 0.0 **** -0.24
3997 H 20.428823777292834 82.11544835909231 26.318305489049777 H 0.0 **** 0.06
3998 H 20.042163466210834 80.62196806668163 27.20633066893072 H 0.0 **** 0.06
3999 H 20.83276462909144 80.53119085141054 25.613930398520637 H 0.0 **** 0.06
4000 H 19.132292505945628 81.04348106891635 25.73508153916842 H 0.0 **** 0.06
4001 C 15.052040824310453 55.1229166703186 108.92696007790892 C 0.0 **** -0.24
4002 H 14.94840428659279 54.614302403901775 109.88530694388415 H 0.0 **** 0.06
4003 H 15.703412253483194 55.98882461985181 109.04370080014884 H 0.0 **** 0.06
4004 H 14.070569085734519 55.44984956340795 108.58132165590666 H 0.0 **** 0.06
4005 H 15.484520164481268 54.43808860835179 108.19774964105079 H 0.0 **** 0.06
4006 C 109.74120087479783 93.6435825868083 14.071720583312981 C 0.0 **** -0.24
4007 H 109.42150763665074 94.31371203532291 13.273602486846883 H 0.0 **** 0.06
4008 H 109.33940954279582 92.6456213956121 13.890949967266309 H 0.0 **** 0.06
4009 H 109.37241314442149 94.01568564152541 15.027109307679453 H 0.0 **** 0.06
4010 H 110.8294817623826 93.59822906943587 14.094291374077699 H 0.0 **** 0.06
4011 C 64.502463141258 8.718718871729052 15.234578406631954 C 0.0 **** -0.24
4012 H 65.51121338116064 8.348275325198756 15.053931705193023 H 0.0 **** 0.06
4013 H 64.16173353936176 9.28433766057384 14.367754075611856 H 0.0 **** 0.06
4014 H 64.50518582200104 9.36490855958597 16.112588215553842 H 0.0 **** 0.06
4015 H 63.8322759205129 7.8761513870796165 15.405840982195912 H 0.0 **** 0.06
4016 C 105.33865561799576 94.620938180017 55.99699868010106 C 0.0 **** -0.24
4017 H 104.5017864266837 95.31812593219792 55.96106948615389 H 0.0 **** 0.06
4018 H 105.6907239545182 94.42518694165396 54.98370942362067 H 0.0 **** 0.06
4019 H 105.0126110173968 93.68698651207595 56.45520164078641 H 0.0 **** 0.06
4020 H 106.14632534173649 95.052281672662 56.586419603518976 H 0.0 **** 0.06
4021 C 81.65996903730975 36.314425301866436 58.387941150918664 C 0.0 **** -0.24
4022 H 82.14410220963501 35.97873481011669 59.304358433717596 H 0.0 **** 0.06
4023 H 80.65155700803783 36.6606878982919 58.61459535548704 H 0.0 **** 0.06
4024 H 81.60959087337183 35.486754731984064 57.679582299213166 H 0.0 **** 0.06
4025 H 82.23599485377346 37.131001322325375 57.95153922501066 H 0.0 **** 0.06
4026 C 4.721841720184443 107.5748992812095 59.713407706594836 C 0.0 **** -0.24
4027 H 3.866477635963861 108.05241707491174 60.1913792258037 H 0.0 **** 0.06
4028 H 4.540011573616312 106.50339026927792 59.630017244273745 H 0.0 **** 0.06
4029 H 5.615349487338676 107.74698994516048 60.313795432987874 H 0.0 **** 0.06
4030 H 4.8652953914318005 107.99942960173492 58.71945407818227 H 0.0 **** 0.06
4031 C 94.73821142187501 39.33417764860701 11.734523140912358 C 0.0 **** -0.24
4032 H 94.8684839512025 38.279374048987705 11.490242105940538 H 0.0 **** 0.06
4033 H 95.39513984750477 39.59735339478158 12.564558312506549 H 0.0 **** 0.06
4034 H 93.70203614260174 39.51605319131352 12.018584358777872 H 0.0 **** 0.06
4035 H 94.99019936407603 39.94191090345072 10.865625514285085 H 0.0 **** 0.06
4036 C 88.77909352451019 63.63913172427323 76.43902225156023 C 0.0 **** -0.24
4037 H 88.32216336743744 62.82181908829108 75.88110145403988 H 0.0 **** 0.06
4038 H 89.79901350595907 63.79437645114422 76.08580406376012 H 0.0 **** 0.06
4039 H 88.79564953278276 63.38869641254212 77.50031243179569 H 0.0 **** 0.06
4040 H 88.1990518097345 64.54977665505629 76.29038801433677 H 0.0 **** 0.06
4041 C 22.439996727841596 17.050883244207597 84.25313491537202 C 0.0 **** -0.24
4042 H 22.657997562454558 17.47500194771115 83.27263059218738 H 0.0 **** 0.06
4043 H 21.55510252996051 16.416844755446505 84.18594668555595 H 0.0 **** 0.06
4044 H 22.257767685277145 17.855787762452962 84.96403219448011 H 0.0 **** 0.06
4045 H 23.28955933975887 16.4559259033405 84.58752067272805 H 0.0 **** 0.06
4046 C 80.69178720532597 29.620823354351387 64.70971120987986 C 0.0 **** -0.24
4047 H 80.60941486997947 29.993123234138352 63.68925971184615 H 0.0 **** 0.06
4048 H 81.63097665724479 29.962004881131634 65.14589019001073 H 0.0 **** 0.06
4049 H 80.67024743181014 28.52994185217875 64.70156005359712 H 0.0 **** 0.06
4050 H 79.85737659694357 29.995025458221903 65.30198597832134 H 0.0 **** 0.06
4051 C 56.102570929203864 95.11867086264994 50.07052701128026 C 0.0 **** -0.24
4052 H 55.18273665956917 95.70126044921335 50.124592140692755 H 0.0 **** 0.06
4053 H 56.94122933299161 95.73171765309405 50.398818632109425 H 0.0 **** 0.06
4054 H 56.26803378365372 94.79777749478455 49.04146613694448 H 0.0 **** 0.06
4055 H 56.01631010126707 94.24374710212061 50.71476703513366 H 0.0 **** 0.06
4056 C 46.78490867378643 72.90825132438067 63.98335527290993 C 0.0 **** -0.24
4057 H 46.72625145455305 73.11881129160247 62.915561025176714 H 0.0 **** 0.06
4058 H 45.87786908582474 73.26280255809002 64.47391759251073 H 0.0 **** 0.06
4059 H 47.65033706829217 73.41700900352612 64.40738949877118 H 0.0 **** 0.06
4060 H 46.88401220291174 71.83305083280845 64.13748574429343 H 0.0 **** 0.06
4061 C 49.39255878989627 99.32039609648231 94.65340705371148 C 0.0 **** -0.24
4062 H 48.4295553847889 99.11775234913142 94.18423788573045 H 0.0 **** 0.06
4063 H 49.472750055654046 100.38534454710208 94.8735159699595 H 0.0 **** 0.06
4064 H 50.195216849592896 99.02782133023086 93.97516530765495 H 0.0 **** 0.06
4065 H 49.47356646763285 98.75003372069872 95.57808764086218 H 0.0 **** 0.06
4066 C 74.77841156513114 76.62950067369519 97.36989175770209 C 0.0 **** -0.24
4067 H 74.24519739033542 76.2711142220796 96.48972217494419 H 0.0 **** 0.06
4068 H 75.57841735958954 75.93127514801401 97.61899946598724 H 0.0 **** 0.06
4069 H 74.08622395908242 76.70340943038516 98.20843724097297 H 0.0 **** 0.06
4070 H 75.20469206971353 77.61107381308977 97.16143825465907 H 0.0 **** 0.06
4071 C 92.46848753863861 101.9789366584783 10.548644048949981 C 0.0 **** -0.24
4072 H 92.65207344919213 100.98358614597002 10.143155035599904 H 0.0 **** 0.06
4073 H 93.34068999272961 102.60885762729741 10.373546394366457 H 0.0 **** 0.06
4074 H 92.28189440813856 101.90544119741159 11.620312459542177 H 0.0 **** 0.06
4075 H 91.59896548050705 102.41616423347708 10.057452446680472 H 0.0 **** 0.06
4076 C 42.037209310213996 47.46693221486412 69.92221618512747 C 0.0 **** -0.24
4077 H 41.85372980339895 48.53887380688614 69.99932165914873 H 0.0 **** 0.06
4078 H 41.67061032780546 47.10335181365619 68.962227532686 H 0.0 **** 0.06
4079 H 41.515860480146245 46.951707716809736 70.72918759969963 H 0.0 **** 0.06
4080 H 43.10755084907362 47.27452923947081 69.999260596543 H 0.0 **** 0.06
4081 C 65.51528820707068 5.728958299334806 94.63329309211612 C 0.0 **** -0.24
4082 H 66.28306132694627 6.424645787623774 94.29564082305399 H 0.0 **** 0.06
4083 H 65.18409914318903 5.116892136891579 93.79488358282894 H 0.0 **** 0.06
4084 H 64.66856765716216 6.2880597488546925 95.03195915475827 H 0.0 **** 0.06
4085 H 65.92565346546917 5.086238125171661 95.41312765216196 H 0.0 **** 0.06
4086 C 90.00158206037742 17.061072562064055 11.07449791359602 C 0.0 **** -0.24
4087 H 88.92273036842619 17.117030187301197 10.929082964145465 H 0.0 **** 0.06
4088 H 90.50310457180717 17.134395638149215 10.109249938162975 H 0.0 **** 0.06
4089 H 90.25553322647914 16.111491817036296 11.545639027299785 H 0.0 **** 0.06
4090 H 90.32424338713207 17.883220891155645 11.714285056702863 H 0.0 **** 0.06
4091 C 22.745000267867454 35.45134882456868 5.464778083865696 C 0.0 **** -0.24
4092 H 22.252545000645725 35.059957569159614 6.355671731574063 H 0.0 **** 0.06
4093 H 23.49237862524555 34.735987021144595 5.119710152036873 H 0.0 **** 0.06
4094 H 23.23054924332179 36.39725076169809 5.705141262429777 H 0.0 **** 0.06
4095 H 22.00515561521418 35.61061344179932 4.681251868394753 H 0.0 **** 0.06
4096 C 97.14145024153078 96.28719127794312 43.08835672439125 C 0.0 **** -0.24
4097 H 97.72796519613894 95.40420404964327 42.83748739783263 H 0.0 **** 0.06
4098 H 96.31780380576868 96.38908643390407 42.380597063111 H 0.0 **** 0.06
4099 H 97.77607076738119 97.17158140854758 43.03737058919174 H 0.0 **** 0.06
4100 H 96.74298896274996 96.18410836351539 44.09787952033457 H 0.0 **** 0.06
4101 C 11.675224114581908 41.32365681489526 74.76551175855568 C 0.0 **** -0.24
4102 H 11.932334666733453 40.51063909148496 74.08600523622488 H 0.0 **** 0.06
4103 H 11.884799371517005 41.018661720239834 75.79106525103089 H 0.0 **** 0.06
4104 H 10.615921425147391 41.5588105836315 74.6660069361422 H 0.0 **** 0.06
4105 H 12.268363069373407 42.2044930050842 74.51976693795956 H 0.0 **** 0.06
4106 C 63.27092312032195 0.3028047752202925 33.392653363920175 C 0.0 **** -0.24
4107 H 64.16681768288643 -0.31732683532330697 33.41320635717199 H 0.0 **** 0.06
4108 H 62.773132057671916 0.2533319146342219 34.36169685388113 H 0.0 **** 0.06
4109 H 62.59534737898677 -0.06161252646717674 32.6183173808102 H 0.0 **** 0.06
4110 H 63.54734240501281 1.3346606220092783 33.17784046657596 H 0.0 **** 0.06
4111 C 77.61153783932394 11.461986463841143 21.28348390498556 C 0.0 **** -0.24
4112 H 76.75584617608013 11.095124918347878 21.85043198186034 H 0.0 **** 0.06
4113 H 78.3352297882252 11.907060906353536 21.965881446446332 H 0.0 **** 0.06
4114 H 77.27710526030535 12.212080903451351 20.566837610191612 H 0.0 **** 0.06
4115 H 78.07616937985091 10.63206024332547 20.75041470868706 H 0.0 **** 0.06
4116 C 108.42452737970308 57.662540180702706 40.25062515762761 C 0.0 **** -0.24
4117 H 107.84789121980158 56.930880747572814 39.683425882634765 H 0.0 **** 0.06
4118 H 107.94910814999494 58.640283374006884 40.17083449845762 H 0.0 **** 0.06
4119 H 109.43618318513036 57.716047402915365 39.850147730773415 H 0.0 **** 0.06
4120 H 108.46304843827504 57.36176632998959 41.29782378933476 H 0.0 **** 0.06
4121 C 93.36765865980281 71.25731585121792 6.536198107010932 C 0.0 **** -0.24
4122 H 93.2921211161823 71.82950427668933 5.612222374967615 H 0.0 **** 0.06
4123 H 93.31961446176834 71.93648486888452 7.388858683247506 H 0.0 **** 0.06
4124 H 94.31589301736881 70.71912735371586 6.553476009341722 H 0.0 **** 0.06
4125 H 92.54463915700123 70.54574728388008 6.591900332887391 H 0.0 **** 0.06
4126 C 86.3112377005765 63.94128166200039 92.6936641225109 C 0.0 **** -0.24
4127 H 85.6030367087535 63.78830111464724 91.8798693115111 H 0.0 **** 0.06
4128 H 85.78895839078382 64.35351169479297 93.55711328836406 H 0.0 **** 0.06
4129 H 87.08882291412374 64.6341688966531 92.37386857514274 H 0.0 **** 0.06
4130 H 86.76406065973606 62.98768376126576 92.96473262262474 H 0.0 **** 0.06
4131 C 80.60282172371393 56.70085793775954 85.56876835163463 C 0.0 **** -0.24
4132 H 79.5838501174502 57.00961862555366 85.80269664827263 H 0.0 **** 0.06
4133 H 80.70568220500869 56.574071803333524 84.49080371517566 H 0.0 **** 0.06
4134 H 80.81945450677807 55.756873193215526 86.06871711429285 H 0.0 **** 0.06
4135 H 81.3015046520174 57.46403690606971 85.91289304709697 H 0.0 **** 0.06
4136 C 103.73113725102144 38.41773311687545 10.196758169460708 C 0.0 **** -0.24
4137 H 103.68538057231672 39.13817612333801 9.379965697905874 H 0.0 **** 0.06
4138 H 104.75919668518588 38.077990469681794 10.323243254398875 H 0.0 **** 0.06
4139 H 103.09191801099439 37.56585222620056 9.965649053413813 H 0.0 **** 0.06
4140 H 103.3885486704429 38.89065105733951 11.117316388741358 H 0.0 **** 0.06
4141 C 49.3071002981132 98.39856392874827 89.11458648509416 C 0.0 **** -0.24
4142 H 49.32801728845703 97.50313520034908 88.49320044072579 H 0.0 **** 0.06
4143 H 48.28573884589281 98.77440055028404 89.17587558648499 H 0.0 **** 0.06
4144 H 49.949949111906164 99.16140559489179 88.67420167838799 H 0.0 **** 0.06
4145 H 49.665995190638085 98.15485518071301 90.11475009939089 H 0.0 **** 0.06
4146 C 108.54473824017643 0.7862831692723802 86.98107834232279 C 0.0 **** -0.24
4147 H 109.0447767202733 1.1293017413273958 87.88630840210126 H 0.0 **** 0.06
4148 H 107.57647224624972 0.35588018352729023 87.24248438337483 H 0.0 **** 0.06
4149 H 109.15860029320321 0.030172435904148642 86.4915237742618 H 0.0 **** 0.06
4150 H 108.39701184966258 1.6293244530062196 86.3058457466448 H 0.0 **** 0.06
4151 C 98.51572280851661 40.61878433700542 42.986774569779186 C 0.0 **** -0.24
4152 H 97.5698509138114 40.84954176190456 42.496404183555995 H 0.0 **** 0.06
4153 H 98.37396978099446 39.784897887150805 43.67525134354085 H 0.0 **** 0.06
4154 H 98.86017607486474 41.49293424274771 43.5393074829899 H 0.0 **** 0.06
4155 H 99.25802062743486 40.347965279256414 42.23569285892023 H 0.0 **** 0.06
4156 C 58.668633278578355 89.95535759042626 31.277249902373285 C 0.0 **** -0.24
4157 H 59.433959071906415 89.19474284901311 31.120478049474485 H 0.0 **** 0.06
4158 H 57.73069046259701 89.62447633123517 30.831221202649346 H 0.0 **** 0.06
4159 H 58.984631321129825 90.88866422448804 30.810881259073653 H 0.0 **** 0.06
4160 H 58.52855072967662 90.11344719396034 32.3467517985801 H 0.0 **** 0.06
4161 C 8.387193054442339 69.65126113322682 42.16780063090579 C 0.0 **** -0.24
4162 H 7.42492486216346 70.02267778935278 41.818179082539984 H 0.0 **** 0.06
4163 H 8.767466231400537 68.90931703879232 41.46497415785018 H 0.0 **** 0.06
4164 H 8.265215638921376 69.19277643836577 43.149302053735255 H 0.0 **** 0.06
4165 H 9.092054644629139 70.47921943049892 42.23843270427591 H 0.0 **** 0.06
4166 C 15.096709274225205 25.776201707758364 45.61226382100531 C 0.0 **** -0.24
4167 H 14.446440189427449 26.56928766892641 45.24311004857265 H 0.0 **** 0.06
4168 H 15.159882294979212 25.83379136552381 46.69892215466897 H 0.0 **** 0.06
4169 H 16.09237241364214 25.89431971990978 45.18325468089133 H 0.0 **** 0.06
4170 H 14.688767297360911 24.807629951427796 45.321881544155254 H 0.0 **** 0.06
4171 C 16.43477481669332 92.66734908250703 105.42381920164362 C 0.0 **** -0.24
4172 H 15.661559238926273 91.96907295786849 105.10480382331741 H 0.0 **** 0.06
4173 H 16.86079980952404 92.32956983961179 106.36842843782841 H 0.0 **** 0.06
4174 H 15.998235217169594 93.65720637892267 105.55552882134708 H 0.0 **** 0.06
4175 H 17.218063888982783 92.7124256885914 104.66725588405438 H 0.0 **** 0.06
4176 C 8.852719062867473 7.29188865815496 92.97431184392039 C 0.0 **** -0.24
4177 H 8.95810462231527 8.233044166890124 92.43369832547972 H 0.0 **** 0.06
4178 H 8.860994431397009 7.485963439321267 94.04677406685985 H 0.0 **** 0.06
4179 H 9.681525038989367 6.632059181581951 92.71716118074121 H 0.0 **** 0.06
4180 H 7.911002301724732 6.818187329248644 92.69652354503074 H 0.0 **** 0.06
4181 C 20.934116947052704 37.40822290788603 29.352928561178317 C 0.0 **** -0.24
4182 H 21.307863224522237 37.62791189491969 30.353552994196093 H 0.0 **** 0.06
4183 H 20.702541947798633 38.342013097763754 28.838759594574412 H 0.0 **** 0.06
4184 H 20.032612618549617 36.80022858466623 29.427107862215422 H 0.0 **** 0.06
4185 H 21.694628889775892 36.86339563010924 28.793379131174277 H 0.0 **** 0.06
4186 C 99.52832838808297 19.54960727529034 67.57133088128752 C 0.0 **** -0.24
4187 H 100.08144222784165 18.787321756037556 68.1195165888614 H 0.0 **** 0.06
4188 H 99.32723023306926 20.396288087358286 68.22797834075826 H 0.0 **** 0.06
4189 H 98.58585221748541 19.13127325477025 67.21813257657602 H 0.0 **** 0.06
4190 H 100.1188347468327 19.88387033284144 66.7183202259527 H 0.0 **** 0.06
4191 C 78.40452064939507 58.452647643984875 27.301708641749293 C 0.0 **** -0.24
4192 H 77.93019155899883 59.433888922114505 27.327751297221155 H 0.0 **** 0.06
4193 H 79.28349604613267 58.490839400400205 26.658546645119095 H 0.0 **** 0.06
4194 H 77.69886489626818 57.71932055572918 26.90984753066617 H 0.0 **** 0.06
4195 H 78.70226133727668 58.16623479416481 28.31021837273441 H 0.0 **** 0.06
4196 C 92.20209262899556 19.599606615389064 100.95216043824693 C 0.0 **** -0.24
4197 H 92.36747435031532 20.617254318840068 100.59953070376861 H 0.0 **** 0.06
4198 H 91.96662096466156 18.95525500668542 100.103395465468 H 0.0 **** 0.06
4199 H 91.37122964909179 19.58884374303875 101.65774644360305 H 0.0 **** 0.06
4200 H 93.10310567842686 19.234726510789642 101.44542176266138 H 0.0 **** 0.06
4201 C 21.04106744662601 13.759503087637171 66.20023144144 C 0.0 **** -0.24
4202 H 20.502403602814983 13.316509724764003 67.03799028657677 H 0.0 **** 0.06
4203 H 22.044853296420523 14.038794567353193 66.52167663090712 H 0.0 **** 0.06
4204 H 20.509787737130463 14.645732696645723 65.85380444975092 H 0.0 **** 0.06
4205 H 21.107854090031857 13.034895578710717 65.3885854328464 H 0.0 **** 0.06
4206 C 96.33051828616522 95.14874067684646 32.249422970301 C 0.0 **** -0.24
4207 H 97.23607467977425 94.63299458359306 31.928745008487795 H 0.0 **** 0.06
4208 H 96.35401997558296 96.17840919126922 31.88995774608952 H 0.0 **** 0.06
4209 H 96.2757142016628 95.14444269174604 33.33710107940556 H 0.0 **** 0.06
4210 H 95.45830295376001 94.64046628487766 31.839055746872248 H 0.0 **** 0.06
4211 C 41.07086566428768 69.19964013515215 50.110482388561394 C 0.0 **** -0.24
4212 H 42.14629840248688 69.0348249070511 50.178886429910555 H 0.0 **** 0.06
4213 H 40.73611025573666 69.77340561265332 50.97382800371884 H 0.0 **** 0.06
4214 H 40.556780572032096 68.238130751817 50.09119486884348 H 0.0 **** 0.06
4215 H 40.846041812735905 69.74990852265434 49.19674518507926 H 0.0 **** 0.06
4216 C 76.36955677945016 74.25610908633763 52.04287612874334 C 0.0 **** -0.24
4217 H 76.43379785557963 74.28579764247905 50.95529698578708 H 0.0 **** 0.06
4218 H 75.4084158902389 74.65986331661193 52.36054958602725 H 0.0 **** 0.06
4219 H 77.17517779924651 74.85437476028581 52.4703498319939 H 0.0 **** 0.06
4220 H 76.46221688148387 73.22497382561811 52.38398009406499 H 0.0 **** 0.06
4221 C 93.3510232609175 4.885364876062781 3.9662947058544944 C 0.0 **** -0.24
4222 H 93.30516560211352 5.659135117948267 3.199222690977308 H 0.0 **** 0.06
4223 H 94.32874601256867 4.909585373897315 4.448005556743766 H 0.0 **** 0.06
4224 H 93.19495773495152 3.9089681926158732 3.5076807107723766 H 0.0 **** 0.06
4225 H 92.57409700630174 5.066542799100176 4.7100527061192565 H 0.0 **** 0.06
4226 C 2.3114738284028817 70.7880723862366 101.70330320482287 C 0.0 **** -0.24
4227 H 1.6003060757039123 71.57296781065514 101.44552744880752 H 0.0 **** 0.06
4228 H 3.30439892845655 71.0666878715212 101.34906750018496 H 0.0 **** 0.06
4229 H 2.0056912503043662 69.85313838854321 101.23303073086078 H 0.0 **** 0.06
4230 H 2.33358033526315 70.66004136449733 102.78544325205257 H 0.0 **** 0.06
4231 C 54.373626854534706 55.194645497835495 89.29482706338553 C 0.0 **** -0.24
4232 H 54.39216154734815 55.60654632935905 88.28579093677081 H 0.0 **** 0.06
4233 H 53.35994068460616 55.25423601823661 89.69267893987717 H 0.0 **** 0.06
4234 H 55.04807832017895 55.76674906686492 89.93290191802947 H 0.0 **** 0.06
4235 H 54.69370525081888 54.15341659720809 89.26781058576063 H 0.0 **** 0.06
4236 C 108.9610311330024 74.70562193299953 19.855721276917677 C 0.0 **** -0.24
4237 H 109.95474533256129 74.80459414283202 19.418199445994247 H 0.0 **** 0.06
4238 H 108.45313398375382 73.84888866475752 19.413543379466986 H 0.0 **** 0.06
4239 H 108.38589967058601 75.610520774971 19.660527528997406 H 0.0 **** 0.06
4240 H 109.05172500453892 74.55799187136765 20.93257818277428 H 0.0 **** 0.06
4241 C 63.644748584249086 97.96433605652999 106.51813461815786 C 0.0 **** -0.24
4242 H 63.26457335780373 98.80454434353342 107.09916350056209 H 0.0 **** 0.06
4243 H 63.940726462147495 97.16079971889764 107.19251150049698 H 0.0 **** 0.06
4244 H 64.50847713927361 98.28692146503522 105.93625026696718 H 0.0 **** 0.06
4245 H 62.866842479996805 97.60660045047581 105.84482192819158 H 0.0 **** 0.06
4246 C 42.86592388701865 30.298366211191293 84.76496705014722 C 0.0 **** -0.24
4247 H 43.1522704454938 30.26014789541607 83.71426171224377 H 0.0 **** 0.06
4248 H 43.73765082928438 30.0924953246502 85.38688352095852 H 0.0 **** 0.06
4249 H 42.09544599911834 29.551345623672404 84.95809354151021 H 0.0 **** 0.06
4250 H 42.47712017253298 31.289438470063303 84.99989513547285 H 0.0 **** 0.06
4251 C 18.49804771544539 21.99156189526478 35.37117740606432 C 0.0 **** -0.24
4252 H 19.139538921810793 21.208312740063718 35.77501836928088 H 0.0 **** 0.06
4253 H 18.788264563679974 22.204002201614866 34.34189655864149 H 0.0 **** 0.06
4254 H 18.6059066857637 22.894303616064295 35.973511718718626 H 0.0 **** 0.06
4255 H 17.45985227190387 21.660553902070784 35.39578750917215 H 0.0 **** 0.06
4256 C 93.80591847224571 85.39616365959569 31.829654272348648 C 0.0 **** -0.24
4257 H 94.07955987686057 84.86789206501038 30.916567631080454 H 0.0 **** 0.06
4258 H 94.4461915368525 86.26990012491115 31.949573852749637 H 0.0 **** 0.06
4259 H 93.93222030444997 84.73206534070141 32.68571390111006 H 0.0 **** 0.06
4260 H 92.76482651645546 85.71421901447962 31.76770993340847 H 0.0 **** 0.06
4261 C 94.3379231118051 54.67238393228496 89.16407349500736 C 0.0 **** -0.24
4262 H 93.36181798084438 55.05959483989295 88.87110892341515 H 0.0 **** 0.06
4263 H 94.3512836948416 53.589795092090526 89.04032940875418 H 0.0 **** 0.06
4264 H 94.5297493276583 54.92175347404202 90.20748628280357 H 0.0 **** 0.06
4265 H 95.10926800899834 55.11955388557908 88.53668459108559 H 0.0 **** 0.06
4266 C 34.20600589942222 0.08898245196421328 92.49619505315835 C 0.0 **** -0.24
4267 H 34.15565242476751 0.6399036621377547 93.4354623676715 H 0.0 **** 0.06
4268 H 35.179558359841224 -0.39551442264841796 92.41066607979832 H 0.0 **** 0.06
4269 H 34.06973530790535 0.7787607361914155 91.66271018559542 H 0.0 **** 0.06
4270 H 33.420974162139544 -0.6663324266460506 92.47467078862377 H 0.0 **** 0.06
4271 C 46.35900127024243 76.42993857139636 96.44698934703786 C 0.0 **** -0.24
4272 H 45.7222721825255 75.89150258806335 97.14956570241765 H 0.0 **** 0.06
4273 H 46.71193901685419 77.35190760633596 96.9100096722056 H 0.0 **** 0.06
4274 H 45.78979777955371 76.6675173548704 95.54888000735207 H 0.0 **** 0.06
4275 H 47.21318968499959 75.8065200982028 96.1810037494376 H 0.0 **** 0.06
4276 C 47.08593029413549 13.920888274996983 75.17065097584837 C 0.0 **** -0.24
4277 H 47.34444220643674 12.935202667456878 74.78386912369511 H 0.0 **** 0.06
4278 H 47.05149955326982 13.886398640087975 76.25955442432691 H 0.0 **** 0.06
4279 H 46.11027037542614 14.217183616418268 74.78483943098894 H 0.0 **** 0.06
4280 H 47.837058599025255 14.644600766674458 74.85301082050596 H 0.0 **** 0.06
4281 C 64.50673483410307 79.67715465163712 41.70964964890612 C 0.0 **** -0.24
4282 H 65.00560158202893 79.05568252499882 42.453831169499296 H 0.0 **** 0.06
4283 H 63.43487554677759 79.69349515755471 41.910685619173364 H 0.0 **** 0.06
4284 H 64.68391819926052 79.26569817392027 40.71542512313323 H 0.0 **** 0.06
4285 H 64.90231194661894 80.69130495980238 41.75871691344426 H 0.0 **** 0.06
4286 C 42.96246822297144 57.14899746165112 27.916462116286617 C 0.0 **** -0.24
4287 H 42.73726762997603 56.13717975702238 28.255714871207196 H 0.0 **** 0.06
4288 H 42.10105450047013 57.554143494007675 27.386412331805808 H 0.0 **** 0.06
4289 H 43.82285091261292 57.12327024407024 27.246989547567622 H 0.0 **** 0.06
4290 H 43.18940022919372 57.77709974617202 28.776954436892126 H 0.0 **** 0.06
4291 C 74.03414600492528 15.928848270883236 37.55159078341842 C 0.0 **** -0.24
4292 H 75.0838154170491 15.662028066827645 37.43436123370094 H 0.0 **** 0.06
4293 H 73.92818833914754 17.012496924531888 37.50931478096635 H 0.0 **** 0.06
4294 H 73.67183271480212 15.564465807929935 38.51273344666612 H 0.0 **** 0.06
4295 H 73.45252817610194 15.475114922993384 36.7481385062153 H 0.0 **** 0.06
4296 C 4.939643578972387 46.3026537116053 94.5211127096902 C 0.0 **** -0.24
4297 H 4.733935232048529 45.291603707915044 94.17017157861905 H 0.0 **** 0.06
4298 H 5.147492353778173 46.28088256622871 95.59088587965813 H 0.0 **** 0.06
4299 H 4.07321625733683 46.93605432387326 94.33250714131776 H 0.0 **** 0.06
4300 H 5.804819968714073 46.70305022677094 93.99037991548477 H 0.0 **** 0.06
4301 C 11.77752068827374 110.38418978040869 18.98951652882215 C 0.0 **** -0.24
4302 H 12.679776389496823 110.13590969156822 19.547864401220977 H 0.0 **** 0.06
4303 H 11.127335506869429 111.00347711295267 19.607523944515776 H 0.0 **** 0.06
4304 H 11.254760002229403 109.46741680960841 18.71657271716424 H 0.0 **** 0.06
4305 H 12.049889920346061 110.93032143487459 18.0858882901357 H 0.0 **** 0.06
4306 C 66.48863334918504 59.65208602166179 51.50126864737513 C 0.0 **** -0.24
4307 H 66.3448835694698 59.92194948383204 50.45524836956679 H 0.0 **** 0.06
4308 H 67.53460668089926 59.39572388150036 51.668746886420934 H 0.0 **** 0.06
4309 H 65.8600623754592 58.794732753760314 51.74442023780608 H 0.0 **** 0.06
4310 H 66.2147201343167 60.49522592628435 52.13546529239389 H 0.0 **** 0.06
4311 C 84.03425866447819 83.87542572159163 4.259260146363431 C 0.0 **** -0.24
4312 H 83.68939135443972 83.03475924419098 3.656984330423626 H 0.0 **** 0.06
4313 H 83.17709095591793 84.36786687049675 4.719896697590963 H 0.0 **** 0.06
4314 H 84.56292110201007 84.58553389628617 3.623337870626747 H 0.0 **** 0.06
4315 H 84.70649835902405 83.51437524569934 5.036976051178822 H 0.0 **** 0.06
4316 C 58.108549026271874 107.0741186072972 14.044587800776725 C 0.0 **** -0.24
4317 H 58.80815270857374 107.13478919937333 13.212062483239293 H 0.0 **** 0.06
4318 H 57.2004976939902 107.6250427746881 13.797802234922187 H 0.0 **** 0.06
4319 H 58.56563496271798 107.50532350903968 14.935501677561547 H 0.0 **** 0.06
4320 H 57.85966287517368 106.02909396968448 14.233978962700348 H 0.0 **** 0.06
4321 C 110.45179120548792 102.83212190672114 17.334746090380975 C 0.0 **** -0.24
4322 H 110.2168827251532 103.4156063784024 16.445176783354 H 0.0 **** 0.06
4323 H 111.53412447566211 102.76206661344872 17.44932684481293 H 0.0 **** 0.06
4324 H 110.03160335765281 101.8310725382575 17.23335522192025 H 0.0 **** 0.06
4325 H 110.02424748279194 103.31781432981205 18.2122163145944 H 0.0 **** 0.06
4326 C 109.49449393956462 33.684983078886034 29.461904594127958 C 0.0 **** -0.24
4327 H 108.98721303393157 34.63555803957382 29.627144011713042 H 0.0 **** 0.06
4328 H 109.21616138343431 33.28951721813905 28.484348691834953 H 0.0 **** 0.06
4329 H 109.2020347527487 32.97759756998494 30.237506983640415 H 0.0 **** 0.06
4330 H 110.57388968681569 33.83754639312724 29.498209793468675 H 0.0 **** 0.06
4331 C 100.10510666940057 38.402038312953096 72.81672372788972 C 0.0 **** -0.24
4332 H 100.0375400105993 37.79224054916256 73.71764556938483 H 0.0 **** 0.06
4333 H 99.32789976459735 38.101008720091784 72.1138920480101 H 0.0 **** 0.06
4334 H 101.08480641381983 38.26411522635249 72.356965671084 H 0.0 **** 0.06
4335 H 99.97216381283037 39.45181218539244 73.07853043600547 H 0.0 **** 0.06
4336 C 95.97684627011307 15.61233664523661 17.32479402460062 C 0.0 **** -0.24
4337 H 95.42547185188027 15.068344480257906 16.557863448725485 H 0.0 **** 0.06
4338 H 96.88935039593935 15.06858895590804 17.570483731259415 H 0.0 **** 0.06
4339 H 95.3585575005502 15.709499244647589 18.21623952082028 H 0.0 **** 0.06
4340 H 96.233941577358 16.603867622067725 16.95141340911171 H 0.0 **** 0.06
4341 C 31.21991102448736 80.69499213258968 86.07014125073603 C 0.0 **** -0.24
4342 H 30.372568101518382 81.37290752478454 86.17340997687637 H 0.0 **** 0.06
4343 H 31.100668216681754 79.85890189739197 86.7600021476104 H 0.0 **** 0.06
4344 H 32.142410424785794 81.22810729060375 86.30061213426431 H 0.0 **** 0.06
4345 H 31.262049814711474 80.31945654655387 85.04746431918232 H 0.0 **** 0.06
4346 C 83.56172967432633 73.73334972252628 36.078439421959565 C 0.0 **** -0.24
4347 H 82.85486526732964 74.51955601609212 35.81312807817105 H 0.0 **** 0.06
4348 H 83.0366515189953 72.93530468875704 36.604006565064275 H 0.0 **** 0.06
4349 H 84.33767988602098 74.14515884426896 36.72321861980879 H 0.0 **** 0.06
4350 H 84.01664342293232 73.33376462364009 35.17210506888623 H 0.0 **** 0.06
4351 C 92.14521086947093 30.311623534948154 81.61157111676269 C 0.0 **** -0.24
4352 H 91.14297917847466 30.409619228583722 82.02910582031589 H 0.0 **** 0.06
4353 H 92.82773856497423 30.970464671260345 82.14737423206088 H 0.0 **** 0.06
4354 H 92.12721196325856 30.585612575178885 80.55627029480831 H 0.0 **** 0.06
4355 H 92.48014174778555 29.2789827723185 81.71368446866968 H 0.0 **** 0.06
4356 C 64.10454705762893 19.13675669045046 63.80810096957694 C 0.0 **** -0.24
4357 H 63.59385910930693 19.299395259026408 62.85892224466755 H 0.0 **** 0.06
4358 H 63.838821224844324 18.15386382290413 64.1983831368147 H 0.0 **** 0.06
4359 H 63.802391546308314 19.904482392843413 64.51997735827294 H 0.0 **** 0.06
4360 H 65.18246118401098 19.1880287487064 63.65339136391765 H 0.0 **** 0.06
4361 C 80.10943265045327 18.770921906832427 75.35097499008938 C 0.0 **** -0.24
4362 H 80.36195404840318 19.613529842111717 74.70754160143747 H 0.0 **** 0.06
4363 H 80.95878323950329 18.088312086890795 75.40329365115701 H 0.0 **** 0.06
4364 H 79.24569838141792 18.247053382815693 74.94164552625574 H 0.0 **** 0.06
4365 H 79.87420734401152 19.135272042498883 76.35088236344308 H 0.0 **** 0.06
4366 C 19.109707665899347 44.45036371945781 7.818901241296146 C 0.0 **** -0.24
4367 H 19.59783807237235 43.52566942401671 7.510917634309379 H 0.0 **** 0.06
4368 H 19.85398854530878 45.14052216971021 8.21450830805287 H 0.0 **** 0.06
4369 H 18.370393064415367 44.23159995355951 8.589161618414153 H 0.0 **** 0.06
4370 H 18.614895484050226 44.90318321945642 6.958603483461673 H 0.0 **** 0.06
4371 C 16.511750740677257 109.58748393283864 51.065777277141535 C 0.0 **** -0.24
4372 H 17.120093870472374 108.69559736121519 51.21916163162825 H 0.0 **** 0.06
4373 H 15.863006877862688 109.73853254428255 51.92874104446639 H 0.0 **** 0.06
4374 H 15.903082962099859 109.46148840281614 50.17055083797034 H 0.0 **** 0.06
4375 H 17.16270885292232 110.45364150871117 50.94366928795851 H 0.0 **** 0.06
4376 C 99.69018148996679 71.87566430665487 63.74569840864905 C 0.0 **** -0.24
4377 H 100.38294545123807 71.05090741164986 63.578202453987586 H 0.0 **** 0.06
4378 H 100.02346917937047 72.74956963601932 63.184485787575 H 0.0 **** 0.06
4379 H 99.6611705132008 72.11544773121273 64.80900835768512 H 0.0 **** 0.06
4380 H 98.6944996125508 71.58662249667043 63.41072062678302 H 0.0 **** 0.06
4381 C 96.89348997066509 97.8652077935489 90.5357557994135 C 0.0 **** -0.24
4382 H 96.15540070837267 98.5421907247399 90.10424201859371 H 0.0 **** 0.06
4383 H 97.66426752215182 97.650115920943 89.79491894860749 H 0.0 **** 0.06
4384 H 96.40454670827307 96.93681934066936 90.83131646962806 H 0.0 **** 0.06
4385 H 97.3477405019384 98.33200732785994 91.409400664981 H 0.0 **** 0.06
4386 C 2.109712520654199 49.50302042131007 39.8138822003487 C 0.0 **** -0.24
4387 H 2.507489093684569 49.6099888100932 38.80527859358648 H 0.0 **** 0.06
4388 H 2.8368784319476106 48.981750823928614 40.43730062194183 H 0.0 **** 0.06
4389 H 1.1829630030644012 48.92932904806755 39.77978932280794 H 0.0 **** 0.06
4390 H 1.9113302262545346 50.48859001376137 40.23346617010205 H 0.0 **** 0.06
4391 C 39.220374281813804 8.086920637606113 4.425346887592269 C 0.0 **** -0.24
4392 H 38.452320333401815 8.697552121343847 4.899510393522604 H 0.0 **** 0.06
4393 H 39.78892631666474 8.697644638911584 3.723669943424639 H 0.0 **** 0.06
4394 H 38.74963782243256 7.261759111458105 3.8905876979400773 H 0.0 **** 0.06
4395 H 39.89007033798413 7.689852005399871 5.189012709635904 H 0.0 **** 0.06
4396 C 91.88739469505516 71.828828797528 96.46234508308093 C 0.0 **** -0.24
4397 H 91.06034880756178 72.49765034126897 96.70192723136653 H 0.0 **** 0.06
4398 H 91.49417179095065 70.84603762484332 96.19859692845043 H 0.0 **** 0.06
4399 H 92.54290398903686 71.73724181238808 97.32834746086927 H 0.0 **** 0.06
4400 H 92.45023451441885 72.23304175335082 95.62122265809901 H 0.0 **** 0.06
4401 C 104.00132092213028 45.58126713327175 38.349406830827796 C 0.0 **** -0.24
4402 H 103.25799253551065 46.17622013048029 38.8811658283336 H 0.0 **** 0.06
4403 H 103.7320109593278 44.52629441981736 38.40853799261189 H 0.0 **** 0.06
4404 H 104.98011513785099 45.73331600450541 38.80399757104626 H 0.0 **** 0.06
4405 H 104.03370586780647 45.890000225461904 37.30506169126639 H 0.0 **** 0.06
4406 C 84.7935738221137 93.32807005921529 80.43130646048735 C 0.0 **** -0.24
4407 H 84.42954734531251 94.28582431618611 80.05836373156302 H 0.0 **** 0.06
4408 H 85.4218551503247 92.85923006787438 79.67393906648306 H 0.0 **** 0.06
4409 H 83.94619366931315 92.6787079093936 80.65295808933934 H 0.0 **** 0.06
4410 H 85.37550143074317 93.48916487548266 81.33849961772569 H 0.0 **** 0.06
4411 C 93.74883370486 79.13430649786613 9.076868778565654 C 0.0 **** -0.24
4412 H 92.88094718751934 78.51898995658796 9.31205430348166 H 0.0 **** 0.06
4413 H 94.64967474524552 78.65219101306243 9.45579196656945 H 0.0 **** 0.06
4414 H 93.63673152101772 80.11401243279958 9.54249004964555 H 0.0 **** 0.06
4415 H 93.82754619396802 79.25380589446692 7.995847955783972 H 0.0 **** 0.06
4416 C 36.79662139382603 83.35596022566773 44.17255497113308 C 0.0 **** -0.24
4417 H 37.56300044264836 82.70488129483226 43.750271672151484 H 0.0 **** 0.06
4418 H 36.72693662930729 84.2668691310403 43.57757366286057 H 0.0 **** 0.06
4419 H 37.060787737219584 83.60928161199058 45.19843316249751 H 0.0 **** 0.06
4420 H 35.83605988080822 82.84001285338655 44.160610650495755 H 0.0 **** 0.06
4421 C 78.63513956635131 86.5522555833112 37.95821552533373 C 0.0 **** -0.24
4422 H 79.05056072499428 87.48169102071022 37.56720936017967 H 0.0 **** 0.06
4423 H 79.4288845270055 85.96922236178091 38.42634262564953 H 0.0 **** 0.06
4424 H 78.19619870066475 85.9788625770225 37.142667837373075 H 0.0 **** 0.06
4425 H 77.8670247945725 86.78115388242277 38.69759502653982 H 0.0 **** 0.06
4426 C 19.44919797892493 46.94899074932883 103.28252829090107 C 0.0 **** -0.24
4427 H 20.003334827070503 47.88649701752777 103.2354104854654 H 0.0 **** 0.06
4428 H 18.736306766910346 46.99057723154567 104.1071242565558 H 0.0 **** 0.06
4429 H 20.144187609314557 46.12423005511036 103.44435538809674 H 0.0 **** 0.06
4430 H 18.914740170056447 46.79482052361479 102.34563444545563 H 0.0 **** 0.06
4431 C 86.58396511010362 46.90818021626751 59.71085668992227 C 0.0 **** -0.24
4432 H 87.44323136836094 46.767098272454234 59.055231710577104 H 0.0 **** 0.06
4433 H 85.70815654679897 47.15654844464041 59.11201257238304 H 0.0 **** 0.06
4434 H 86.789607415818 47.71912318953417 60.40850086405058 H 0.0 **** 0.06
4435 H 86.39662432700563 45.98908641080885 60.26660552610025 H 0.0 **** 0.06
4436 C 85.04802968094597 29.272038190254847 65.50015674560228 C 0.0 **** -0.24
4437 H 85.04529584086724 29.071878422633105 66.57145983445889 H 0.0 **** 0.06
4438 H 84.16489117475983 28.823521926811964 65.04420903296537 H 0.0 **** 0.06
4439 H 85.9458690169809 28.843199264490977 65.05344038349972 H 0.0 **** 0.06
4440 H 85.03781485437798 30.348590461360416 65.33157570924465 H 0.0 **** 0.06
4441 C 110.20233455216632 81.37354923728378 8.585479717511774 C 0.0 **** -0.24
4442 H 109.57354287757434 80.9793802598708 9.384259170111662 H 0.0 **** 0.06
4443 H 109.80837842198652 82.3348322568043 8.255373276486182 H 0.0 **** 0.06
4444 H 110.20780966975234 80.67444163758682 7.749330621908186 H 0.0 **** 0.06
4445 H 111.21916269834735 81.50582151013629 8.955909638637763 H 0.0 **** 0.06
4446 C 49.65238245695178 29.913801428793363 105.8386895649448 C 0.0 **** -0.24
4447 H 50.37918717431841 29.55851477965382 106.56821129855227 H 0.0 **** 0.06
4448 H 49.0735365534243 30.730483265887273 106.27012314261721 H 0.0 **** 0.06
4449 H 48.98236633414365 29.097650411082867 105.56703412258959 H 0.0 **** 0.06
4450 H 50.17360803320879 30.268056758272678 104.94914934118682 H 0.0 **** 0.06
4451 C 11.912780623530935 56.05181263498548 75.3037357551816 C 0.0 **** -0.24
4452 H 11.434316168725502 55.081017681948424 75.17158927133062 H 0.0 **** 0.06
4453 H 11.22158793844724 56.731676237929406 75.80231765171169 H 0.0 **** 0.06
4454 H 12.183696533223973 56.458093279215575 74.3286817082454 H 0.0 **** 0.06
4455 H 12.810170517661263 55.93420200207336 75.91033924903792 H 0.0 **** 0.06
4456 C 75.15042830316074 2.7653453802849697 72.24896174719487 C 0.0 **** -0.24
4457 H 74.37842498139702 2.2741277629178853 71.65703537242563 H 0.0 **** 0.06
4458 H 75.73959524125321 3.4194768788988057 71.60522647657795 H 0.0 **** 0.06
4459 H 75.80054904116983 2.012068321030938 72.69421048803657 H 0.0 **** 0.06
4460 H 74.68311477970825 3.355136664168157 73.03773995387557 H 0.0 **** 0.06
4461 C 91.20877442017508 25.98340091425547 54.693998289273914 C 0.0 **** -0.24
4462 H 91.04968164028105 26.480997392181706 53.738006709560814 H 0.0 **** 0.06
4463 H 92.2155537826516 26.198222526113085 55.05331536418791 H 0.0 **** 0.06
4464 H 91.0901073952752 24.906795744995122 54.56813636605488 H 0.0 **** 0.06
4465 H 90.4790574086748 26.345635977609447 55.418459189544365 H 0.0 **** 0.06
4466 C 74.35818011507718 106.4341281078897 77.9712874379097 C 0.0 **** -0.24
4467 H 75.12030448885452 105.8711030614254 77.43090233871861 H 0.0 **** 0.06
4468 H 74.59707092384815 107.49687023431252 77.93178954756048 H 0.0 **** 0.06
4469 H 74.33060071326207 106.10569768288849 79.00933342291606 H 0.0 **** 0.06
4470 H 73.38567056656603 106.26227432648734 77.50954377695399 H 0.0 **** 0.06
4471 C 12.88793923035118 83.49966174587439 54.81297861039769 C 0.0 **** -0.24
4472 H 12.291759053124508 82.63681784589357 55.10982087402576 H 0.0 **** 0.06
4473 H 13.654719885404717 83.68793800638946 55.56490496536719 H 0.0 **** 0.06
4474 H 12.24272906982975 84.37375491819608 54.72483267030486 H 0.0 **** 0.06
4475 H 13.362060061917703 83.3005940230127 53.85161331162581 H 0.0 **** 0.06
4476 C 52.39564217487731 51.669439069805094 44.8354721601298 C 0.0 **** -0.24
4477 H 52.75485127097278 51.79546262868904 43.81405323282172 H 0.0 **** 0.06
4478 H 51.38301741249626 52.065605556343066 44.91545322090502 H 0.0 **** 0.06
4479 H 53.05160384470639 52.20638726457599 45.51969916078218 H 0.0 **** 0.06
4480 H 52.393058617737324 50.6093930479214 45.09063979975875 H 0.0 **** 0.06
4481 C 13.498433366087617 39.135937629235684 11.495351126547575 C 0.0 **** -0.24
4482 H 13.164048275654888 39.172388821873255 10.458780998981297 H 0.0 **** 0.06
4483 H 14.286447707732393 38.389017399988404 11.59667906756954 H 0.0 **** 0.06
4484 H 12.659392790522503 38.868804724242864 12.138363327961954 H 0.0 **** 0.06
4485 H 13.883573843116864 40.112620575461904 11.7878677115784 H 0.0 **** 0.06
4486 C 64.80079335717363 92.70066305830841 73.68559422633098 C 0.0 **** -0.24
4487 H 64.99543681027467 93.53801018818024 74.35616746791027 H 0.0 **** 0.06
4488 H 65.36563611475657 91.82958956893765 74.01930281352236 H 0.0 **** 0.06
4489 H 65.10706102469538 92.96711762626677 72.67362592158776 H 0.0 **** 0.06
4490 H 63.73606591954115 92.46929866966767 73.69357492345063 H 0.0 **** 0.06
4491 C 83.12410395306631 46.92753677402072 99.21874150137856 C 0.0 **** -0.24
4492 H 83.23795861999794 48.000699553453444 99.37249619057786 H 0.0 **** 0.06
4493 H 83.99412873929444 46.40944782945513 99.62469045356346 H 0.0 **** 0.06
4494 H 83.04199133221096 46.720392409653726 98.15256028991587 H 0.0 **** 0.06
4495 H 82.22460406804089 46.581868191869034 99.7271555728887 H 0.0 **** 0.06
4496 C 4.702706931458934 75.8527787175417 80.10792987669514 C 0.0 **** -0.24
4497 H 4.7803212104848285 75.00381515511774 80.78732051309505 H 0.0 **** 0.06
4498 H 3.657756121899837 76.15016327707748 80.0164094255778 H 0.0 **** 0.06
4499 H 5.087885797898238 75.56901056419183 79.1282224517422 H 0.0 **** 0.06
4500 H 5.285030350866222 76.68673932274774 80.49999095105144 H 0.0 **** 0.06
4501 C 40.19461314447153 6.482361628422737 41.822607488297365 C 0.0 **** -0.24
4502 H 40.562895155035676 7.432155838358398 42.21178624731016 H 0.0 **** 0.06
4503 H 40.433542004892686 6.4075868990338165 40.7620498807064 H 0.0 **** 0.06
4504 H 39.113928015058264 6.4309954479002585 41.95664448902443 H 0.0 **** 0.06
4505 H 40.66726330751737 5.661521650397702 42.361135333157165 H 0.0 **** 0.06
4506 C 3.9333559695619016 63.79425102578796 88.07947184502376 C 0.0 **** -0.24
4507 H 3.626811263043521 64.59865259065458 88.74745324693401 H 0.0 **** 0.06
4508 H 3.200444234582605 62.98784597504692 88.12200504069253 H 0.0 **** 0.06
4509 H 4.907782114024556 63.41724331789584 88.38766583370955 H 0.0 **** 0.06
4510 H 3.9965821394156364 64.17392519240093 87.05962052366021 H 0.0 **** 0.06
4511 C 78.66973997028792 41.482098569262575 42.36578857471176 C 0.0 **** -0.24
4512 H 79.25304452972988 40.63079173733013 42.71529415594358 H 0.0 **** 0.06
4513 H 78.61653376657902 41.463084444845435 41.27704970933735 H 0.0 **** 0.06
4514 H 79.14713035651522 42.407468348474254 42.690200335563816 H 0.0 **** 0.06
4515 H 77.66321346426041 41.42804554354251 42.78089748383428 H 0.0 **** 0.06
4516 C 93.22195696700399 31.45158450610576 67.43030848650989 C 0.0 **** -0.24
4517 H 93.30452241632912 30.36586591304006 67.38024037943035 H 0.0 **** 0.06
4518 H 92.82452529749452 31.74118721715059 68.40227916070262 H 0.0 **** 0.06
4519 H 92.55194190161865 31.80125531115744 66.64415333088874 H 0.0 **** 0.06
4520 H 94.20663115249762 31.897327651731665 67.29222340446489 H 0.0 **** 0.06
4521 C 49.97298369225912 16.687424142902007 61.9649479405595 C 0.0 **** -0.24
4522 H 49.41236690003908 16.70247101006933 61.030127556128065 H 0.0 **** 0.06
4523 H 50.37244439979561 15.687105320850247 62.13326356965746 H 0.0 **** 0.06
4524 H 49.31308796830151 16.95963209360191 62.78821773725993 H 0.0 **** 0.06
4525 H 50.79470825303072 17.40192083268949 61.90631337567022 H 0.0 **** 0.06
4526 C 107.44796227893465 85.15088267209757 60.7744443498606 C 0.0 **** -0.24
4527 H 107.22865284901292 84.21352546313148 60.2630945927246 H 0.0 **** 0.06
4528 H 107.10867306753124 85.98649074532784 60.16249525267182 H 0.0 **** 0.06
4529 H 108.52196978986609 85.23223229379755 60.93793371880311 H 0.0 **** 0.06
4530 H 106.93184494895104 85.1700881200739 61.734522890430895 H 0.0 **** 0.06
4531 C 108.60564561762465 12.891990228051839 47.82345309639891 C 0.0 **** -0.24
4532 H 108.45262642143337 12.407858963421745 46.85919081324709 H 0.0 **** 0.06
4533 H 107.7812535228195 13.577297863212067 48.02092932079938 H 0.0 **** 0.06
4534 H 109.54342225703556 13.446468571425683 47.80769163466242 H 0.0 **** 0.06
4535 H 108.64523516375789 12.134560269073233 48.607359558317405 H 0.0 **** 0.06
4536 C 19.505935490131122 21.9683794726416 90.11813631865172 C 0.0 **** -0.24
4537 H 20.382170392332966 22.506169671143326 89.7545226685172 H 0.0 **** 0.06
4538 H 19.729002673244082 21.52626673214442 91.0899954495219 H 0.0 **** 0.06
4539 H 19.243219416994066 21.18158186962006 89.4113693819618 H 0.0 **** 0.06
4540 H 18.670457215723133 22.662029987834103 90.21726649952572 H 0.0 **** 0.06
4541 C 26.656078111709576 109.9279739341344 8.530597610285213 C 0.0 **** -0.24
4542 H 26.70170987706564 110.41739656125748 9.503564708826616 H 0.0 **** 0.06
4543 H 27.534590302216714 110.20031124828029 7.945901590057474 H 0.0 **** 0.06
4544 H 25.75605285075909 110.24731740996901 8.005317686869944 H 0.0 **** 0.06
4545 H 26.631900518718055 108.84700914436462 8.668595072479206 H 0.0 **** 0.06
4546 C 58.99642131148062 96.38443500091887 4.328765445294735 C 0.0 **** -0.24
4547 H 59.275748134728474 97.40217978671592 4.0549373164657965 H 0.0 **** 0.06
4548 H 59.872519396200175 95.85567074343754 4.703151873512994 H 0.0 **** 0.06
4549 H 58.60594300003555 95.86700311756982 3.4526035570490308 H 0.0 **** 0.06
4550 H 58.230573808669476 96.41487069693812 5.103868025071094 H 0.0 **** 0.06
4551 C 53.36224569508687 81.46613659270378 78.1002800459332 C 0.0 **** -0.24
4552 H 53.62656420946726 81.7985258854269 77.09668710811951 H 0.0 **** 0.06
4553 H 54.25692205385889 81.44877942474773 78.7239961330535 H 0.0 **** 0.06
4554 H 52.93507380835857 80.46417533443599 78.05043441089525 H 0.0 **** 0.06
4555 H 52.63224845099762 82.15203975448708 78.53078630353832 H 0.0 **** 0.06
4556 C 61.94253823843616 72.52381180171301 70.93134746760398 C 0.0 **** -0.24
4557 H 61.01774806928995 72.074101649228 71.29388531965657 H 0.0 **** 0.06
4558 H 62.781507297006215 72.14985407631298 71.51813556112752 H 0.0 **** 0.06
4559 H 61.88181956773394 73.60720993432142 71.03049089452361 H 0.0 **** 0.06
4560 H 62.08586876888813 72.26215823860264 69.88292603119521 H 0.0 **** 0.06
4561 C 73.6304897047259 31.788085406750923 68.89665860963419 C 0.0 **** -0.24
4562 H 72.74756466776893 32.41991360614432 68.99654489216164 H 0.0 **** 0.06
4563 H 73.3411386143643 30.82436155733886 68.47703849118835 H 0.0 **** 0.06
4564 H 74.08170396997343 31.637168002945742 69.87742737170748 H 0.0 **** 0.06
4565 H 74.34948756734303 32.27148503499254 68.23499432817908 H 0.0 **** 0.06
4566 C 46.72698355851696 28.126207230002684 65.53515460654353 C 0.0 **** -0.24
4567 H 47.80156775067382 28.265993001840272 65.42124920427054 H 0.0 **** 0.06
4568 H 46.53934317321324 27.229716086720053 66.12742441613693 H 0.0 **** 0.06
4569 H 46.26843982114406 28.015954984145957 64.55276375500733 H 0.0 **** 0.06
4570 H 46.30005821634941 28.99214694387109 66.04051869919616 H 0.0 **** 0.06
4571 C 45.4705069601701 34.113876974986795 98.30465860006873 C 0.0 **** -0.24
4572 H 46.0134466041558 33.62448188101496 97.49631356410224 H 0.0 **** 0.06
4573 H 45.441587532566416 35.188887047129526 98.12277177578055 H 0.0 **** 0.06
4574 H 45.97452245205588 33.91892077941134 99.2508690205793 H 0.0 **** 0.06
4575 H 44.45302833460528 33.723921035507146 98.34640057231313 H 0.0 **** 0.06
4576 C 54.00231147313606 68.5777543592842 73.84209000764383 C 0.0 **** -0.24
4577 H 53.16063776900295 68.12569377955583 73.31800384441618 H 0.0 **** 0.06
4578 H 54.72981786546122 67.80661203700322 74.09586887027916 H 0.0 **** 0.06
4579 H 53.6465406940969 69.05593949043725 74.75465773688126 H 0.0 **** 0.06
4580 H 54.47123081429098 69.32322886659995 73.20069770423487 H 0.0 **** 0.06
4581 C 62.14329949625335 47.13609391151567 103.67264833630782 C 0.0 **** -0.24
4582 H 63.02066756502916 46.66776614647671 104.11751466828721 H 0.0 **** 0.06
4583 H 62.44489916897399 47.71270193587043 102.797126406411 H 0.0 **** 0.06
4584 H 61.676655355508984 47.799479189836916 104.40107950505805 H 0.0 **** 0.06
4585 H 61.432085099079586 46.36556582566158 103.37365782845046 H 0.0 **** 0.06
4586 C 3.904511398304578 80.30807437002824 58.31306320944696 C 0.0 **** -0.24
4587 H 4.7709597127715995 79.98909240909933 58.89171381156865 H 0.0 **** 0.06
4588 H 3.110590563276645 79.56717297632218 58.4112854270262 H 0.0 **** 0.06
4589 H 4.183930429492307 80.40490733653291 57.26333458846588 H 0.0 **** 0.06
4590 H 3.5525250991604196 81.26915738183465 58.68556117223895 H 0.0 **** 0.06
4591 C 100.20678652989106 15.020524699925858 93.99834475369966 C 0.0 **** -0.24
4592 H 99.96626666453076 16.061279603121477 94.21592271813546 H 0.0 **** 0.06
4593 H 101.28853272832485 14.901441596668292 93.9474522167549 H 0.0 **** 0.06
4594 H 99.76366893820062 14.738505936841818 93.04270099094782 H 0.0 **** 0.06
4595 H 99.80652933436886 14.38292341894308 94.78688488428094 H 0.0 **** 0.06
4596 C 65.64197713287203 0.29969080562489125 51.93000952336769 C 0.0 **** -0.24
4597 H 65.53616141484599 1.046978973167711 51.14375247450215 H 0.0 **** 0.06
4598 H 64.75714441439172 0.313710366358805 52.566190497147375 H 0.0 **** 0.06
4599 H 66.52405681079239 0.525318469850788 52.529219275299 H 0.0 **** 0.06
4600 H 65.75112125958015 -0.6868995442719665 51.48013426213612 H 0.0 **** 0.06
4601 C 37.182355433495275 12.023280840827198 43.42233008001813 C 0.0 **** -0.24
4602 H 36.162581966091636 11.957677430342699 43.80187192107144 H 0.0 **** 0.06
4603 H 37.61565342414343 12.981260947265753 43.71085344082934 H 0.0 **** 0.06
4604 H 37.171099875865934 11.942485119635109 42.335349813603045 H 0.0 **** 0.06
4605 H 37.778779873461644 11.21365226279002 43.8405514157167 H 0.0 **** 0.06
4606 C 94.19002870760974 27.474251110183417 109.6937831390504 C 0.0 **** -0.24
4607 H 93.42108815511193 27.151534958303927 108.99127585402357 H 0.0 **** 0.06
4608 H 94.26966535618422 28.560792126868506 109.6724449536421 H 0.0 **** 0.06
4609 H 95.1460488968957 27.033123413908015 109.41226320916324 H 0.0 **** 0.06
4610 H 93.92171198229892 27.148482866683736 110.69923625387223 H 0.0 **** 0.06
4611 C 102.83465300621485 37.96492847282883 42.74812250503402 C 0.0 **** -0.24
4612 H 102.44588673670783 38.91223318014153 43.12151948326232 H 0.0 **** 0.06
4613 H 103.89863868349401 38.06894882992077 42.53255804008745 H 0.0 **** 0.06
4614 H 102.3037946333783 37.68964989272877 41.83644939750104 H 0.0 **** 0.06
4615 H 102.68985988637202 37.190963926433994 43.50074690076627 H 0.0 **** 0.06
4616 C 34.52725927281574 92.22967846582267 72.24537267065779 C 0.0 **** -0.24
4617 H 34.75799774718115 92.26685725606653 71.18082665726186 H 0.0 **** 0.06
4618 H 35.40698000482422 92.52759833807706 72.81686280500679 H 0.0 **** 0.06
4619 H 34.241699040864916 91.21487886107869 72.51888089859347 H 0.0 **** 0.06
4620 H 33.704373643448776 92.91041373292619 72.46295129503736 H 0.0 **** 0.06
4621 C 8.657160417427022 46.100605551388185 20.0672798983546 C 0.0 **** -0.24
4622 H 7.706791695911008 46.2743231773278 19.562805716821543 H 0.0 **** 0.06
4623 H 9.458968784134342 46.58516270624466 19.508477132108453 H 0.0 **** 0.06
4624 H 8.848349199296152 45.028786127547164 20.12352689670837 H 0.0 **** 0.06
4625 H 8.614010592018346 46.51540461082038 21.074703146451554 H 0.0 **** 0.06
4626 C 65.67416675810962 3.3758870456076124 63.11045837542781 C 0.0 **** -0.24
4627 H 64.64014202448794 3.0310679561560097 63.10038946621262 H 0.0 **** 0.06
4628 H 66.34115268550539 2.527093383782672 62.95137364612282 H 0.0 **** 0.06
4629 H 65.89538828356997 3.8361372554623596 64.07336102115829 H 0.0 **** 0.06
4630 H 65.82051773758123 4.1076724454292055 62.3152167056798 H 0.0 **** 0.06
4631 C 44.22580031744763 30.016351648160878 13.803497565715276 C 0.0 **** -0.24
4632 H 45.211456514944594 30.045307295522832 14.2696791204811 H 0.0 **** 0.06
4633 H 43.514654456046244 29.554490652614618 14.488498824725411 H 0.0 **** 0.06
4634 H 44.2761206105448 29.434242615206813 12.883716267063363 H 0.0 **** 0.06
4635 H 43.90314810497409 31.031273813211044 13.574156742049865 H 0.0 **** 0.06
4636 C 103.92724265412579 42.65977892763263 42.13446491875635 C 0.0 **** -0.24
4637 H 104.29335825386704 42.764405673446106 43.15582349751176 H 0.0 **** 0.06
4638 H 104.1130809092435 43.58268204188582 41.585845128236826 H 0.0 **** 0.06
4639 H 102.8570171068357 42.455636358647496 42.151101702895886 H 0.0 **** 0.06
4640 H 104.44606108337877 41.83517303669508 41.646192180943075 H 0.0 **** 0.06
4641 C 39.012567988127415 3.167725172590565 25.93934369104352 C 0.0 **** -0.24
4642 H 37.97444192777198 2.94286482464031 26.187291107105132 H 0.0 **** 0.06
4643 H 39.10723688705394 4.227525365673785 25.702791198433435 H 0.0 **** 0.06
4644 H 39.31582415069573 2.5741590760013366 25.077502831053394 H 0.0 **** 0.06
4645 H 39.649111264925835 2.925603343158542 26.790038922957535 H 0.0 **** 0.06
4646 C 110.28066331844697 4.194519151081451 101.35718584441781 C 0.0 **** -0.24
4647 H 109.8574169180498 4.29741722121409 102.35647720026247 H 0.0 **** 0.06
4648 H 111.34491706476878 3.972767398178007 101.43400274106472 H 0.0 **** 0.06
4649 H 110.14155940026471 5.125928138389455 100.8068575677446 H 0.0 **** 0.06
4650 H 109.77634716751024 3.3837407246698774 100.83125780302936 H 0.0 **** 0.06
4651 C 7.45210327489427 16.679491716807647 40.41424691754034 C 0.0 **** -0.24
4652 H 6.771554999900502 16.850906720598772 41.24868727473944 H 0.0 **** 0.06
4653 H 7.4624273893274875 17.558160297595123 39.76826569670732 H 0.0 **** 0.06
4654 H 7.1156686714826805 15.812953786674598 39.84415433358157 H 0.0 **** 0.06
4655 H 8.455799192560534 16.496948882797042 40.79541518160224 H 0.0 **** 0.06
4656 C 31.08243727139225 98.13984677381441 64.84736670432444 C 0.0 **** -0.24
4657 H 30.3154125598071 97.95476951530283 64.09559265981703 H 0.0 **** 0.06
4658 H 31.714477555153195 98.96813785994053 64.52535312540866 H 0.0 **** 0.06
4659 H 31.692140807885067 97.24406891583261 64.97259228383568 H 0.0 **** 0.06
4660 H 30.60876188751638 98.39163199358276 65.79648028532716 H 0.0 **** 0.06
4661 C 81.59731941411167 40.61531452499332 85.37450756527946 C 0.0 **** -0.24
4662 H 81.6937356591549 40.492105794119595 84.2961953635346 H 0.0 **** 0.06
4663 H 81.99950588723789 41.58625378637964 85.66642673785799 H 0.0 **** 0.06
4664 H 82.15073916834626 39.825345622329564 85.88112022188233 H 0.0 **** 0.06
4665 H 80.54541330331793 40.559525864210116 85.65324193960086 H 0.0 **** 0.06
4666 C 47.30620220462944 32.77632982399927 16.73724949108191 C 0.0 **** -0.24
4667 H 47.3994978418184 33.15453465652299 17.75511723553501 H 0.0 **** 0.06
4668 H 47.08610339502471 31.708484945679196 16.764756427245544 H 0.0 **** 0.06
4669 H 48.24125210537679 32.94049202285927 16.201502165446158 H 0.0 **** 0.06
4670 H 46.49766004693677 33.30042838900049 16.227520139090217 H 0.0 **** 0.06
4671 C 97.63092214964604 18.24308238978 35.82502777481835 C 0.0 **** -0.24
4672 H 98.07212488257096 19.22720352940783 35.97784918251347 H 0.0 **** 0.06
4673 H 98.3367528034326 17.47522171680268 36.14189180282531 H 0.0 **** 0.06
4674 H 97.39714386505818 18.10984982120692 34.768851881101426 H 0.0 **** 0.06
4675 H 96.7156153305163 18.160013274152362 36.41240649508495 H 0.0 **** 0.06
4676 C 59.412851232337275 20.515500852680816 56.49885574017149 C 0.0 **** -0.24
4677 H 58.88829623816763 20.302390089027767 55.568226104362026 H 0.0 **** 0.06
4678 H 60.3819461431151 20.9615587317611 56.275759027401485 H 0.0 **** 0.06
4679 H 59.55829356081669 19.58949312013243 57.05476393292771 H 0.0 **** 0.06
4680 H 58.8223833203495 21.20907760273053 57.09825436595483 H 0.0 **** 0.06
4681 C 18.083454515404725 52.083981920469114 92.3462214555189 C 0.0 **** -0.24
4682 H 18.39155795630083 52.272438272951085 91.3177652299654 H 0.0 **** 0.06
4683 H 17.009964363152633 52.25258375561104 92.44088469950555 H 0.0 **** 0.06
4684 H 18.61835545857977 52.75827385953683 93.01473927404243 H 0.0 **** 0.06
4685 H 18.31424989914362 51.051940066516536 92.61030256992103 H 0.0 **** 0.06
4686 C 45.9995989277802 96.31659267977884 46.80283143604913 C 0.0 **** -0.24
4687 H 45.430275425765615 96.82488380155279 47.5807540509345 H 0.0 **** 0.06
4688 H 47.02999833949525 96.67347085871015 46.81523331697423 H 0.0 **** 0.06
4689 H 45.55339972972615 96.52718676443634 45.8300769865603 H 0.0 **** 0.06
4690 H 45.98406716586538 95.24231176506385 46.98372079201451 H 0.0 **** 0.06
4691 C 105.76623298910192 81.77099761051744 101.07194928692608 C 0.0 **** -0.24
4692 H 105.86978145719365 80.97706858818908 100.33209918711194 H 0.0 **** 0.06
4693 H 104.93021241927079 82.41490257199457 100.79839170062003 H 0.0 **** 0.06
4694 H 106.68300696338557 82.35869563484968 101.10501265713204 H 0.0 **** 0.06
4695 H 105.58071242946986 81.33146783033305 102.05256005646481 H 0.0 **** 0.06
4696 C 65.00762434291761 9.650716879388227 32.60772891672559 C 0.0 **** -0.24
4697 H 64.84103674479007 10.560177214503796 33.18549637172649 H 0.0 **** 0.06
4698 H 64.87255706359556 9.865226304118124 31.547217101239028 H 0.0 **** 0.06
4699 H 64.29513026141046 8.887585315839686 32.91887368733035 H 0.0 **** 0.06
4700 H 66.02310292137008 9.29278373363266 32.78021920655726 H 0.0 **** 0.06
4701 C 36.48484724521228 107.78248457563745 83.474277675314 C 0.0 **** -0.24
4702 H 37.36063499614943 107.80895896560057 84.12271245021356 H 0.0 **** 0.06
4703 H 35.587871496892234 107.953013778969 84.07011998519147 H 0.0 **** 0.06
4704 H 36.41970055074256 106.80753898470522 82.99031199563063 H 0.0 **** 0.06
4705 H 36.57114283426077 108.5604456312966 82.71569781825451 H 0.0 **** 0.06
4706 C 25.81999469473294 60.22151025953019 14.848401077107521 C 0.0 **** -0.24
4707 H 26.550662462602922 59.41294958470621 14.86309692011407 H 0.0 **** 0.06
4708 H 24.857192983008414 59.84651605193551 15.196645214361343 H 0.0 **** 0.06
4709 H 25.717499191118893 60.599498877536575 13.831039281370447 H 0.0 **** 0.06
4710 H 26.155518814472266 61.02598130372195 15.502810452687338 H 0.0 **** 0.06
4711 C 5.792156793908191 58.05719982845508 38.76526106184917 C 0.0 **** -0.24
4712 H 6.180731382061936 58.24413458207157 37.76445344228745 H 0.0 **** 0.06
4713 H 6.618571940083314 58.01217983984946 39.47410865192961 H 0.0 **** 0.06
4714 H 5.253457152214594 57.109363337877795 38.774174171366724 H 0.0 **** 0.06
4715 H 5.113515574937253 58.862715916405975 39.04775303610302 H 0.0 **** 0.06
4716 C 48.22799162826598 86.58873940772781 28.65843244712687 C 0.0 **** -0.24
4717 H 48.40770409050617 86.19372912249032 29.658052380136155 H 0.0 **** 0.06
4718 H 49.049038923117564 87.24792719301266 28.37485426838228 H 0.0 **** 0.06
4719 H 47.29243426701075 87.14906525615648 28.652674179014838 H 0.0 **** 0.06
4720 H 48.16213685129247 85.76484517779123 27.948599986178237 H 0.0 **** 0.06
4721 C 10.551354136327575 13.330100140790336 17.465736182351094 C 0.0 **** -0.24
4722 H 10.836899990545803 12.477691459940331 18.08148020080816 H 0.0 **** 0.06
4723 H 10.7093169555191 13.087828240755528 16.41401146077979 H 0.0 **** 0.06
4724 H 11.159010736520372 14.193046887082204 17.735678834107972 H 0.0 **** 0.06
4725 H 9.498316220278113 13.560781197948813 17.630597300574237 H 0.0 **** 0.06
4726 C 36.64477980219016 48.469142216578064 24.957863914021523 C 0.0 **** -0.24
4727 H 35.73927404114352 47.87178075344303 24.856664721497026 H 0.0 **** 0.06
4728 H 36.543449312072994 49.3835433560032 24.37287122562503 H 0.0 **** 0.06
4729 H 37.499390174848486 47.89844169887505 24.593768063965626 H 0.0 **** 0.06
4730 H 36.797382840884495 48.723221211114804 26.00685434059615 H 0.0 **** 0.06
4731 C 34.15042180455774 103.68337828403617 87.15787858684729 C 0.0 **** -0.24
4732 H 34.92761888166305 103.83782197131524 86.40986217786676 H 0.0 **** 0.06
4733 H 33.9401305084951 102.61768128047605 87.24840593330072 H 0.0 **** 0.06
4734 H 33.24511568950152 104.2090920841617 86.85438630006936 H 0.0 **** 0.06
4735 H 34.49022248134213 104.06983372202077 88.11930746063223 H 0.0 **** 0.06
4736 C 68.84063731973862 61.40566852752053 75.77237887045578 C 0.0 **** -0.24
4737 H 69.25257491460553 60.40671808870772 75.62840949337513 H 0.0 **** 0.06
4738 H 68.5249215537886 61.52233081419466 76.81006393686147 H 0.0 **** 0.06
4739 H 67.98312675255221 61.543147058228314 75.11370974950509 H 0.0 **** 0.06
4740 H 69.60235691992165 62.14944847060684 75.53820076110392 H 0.0 **** 0.06
4741 C 13.262872508435123 33.43200515070044 110.44220693992492 C 0.0 **** -0.24
4742 H 14.329968948276331 33.21773477561558 110.39272892922415 H 0.0 **** 0.06
4743 H 12.736308352437419 32.566093132478365 110.84380911986426 H 0.0 **** 0.06
4744 H 12.889535717194008 33.6527267689147 109.44260036752578 H 0.0 **** 0.06
4745 H 13.09427742103668 34.291806398686234 111.09139974187036 H 0.0 **** 0.06
4746 C 51.07495510783715 33.0179310983801 42.56614621661544 C 0.0 **** -0.24
4747 H 50.04890570899406 32.803108184176025 42.26661574118356 H 0.0 **** 0.06
4748 H 51.25980649082442 32.60194767334531 43.55667006817987 H 0.0 **** 0.06
4749 H 51.227728492410186 34.09724251412288 42.5905578965195 H 0.0 **** 0.06
4750 H 51.763534702017395 32.57096118435669 41.84912266929203 H 0.0 **** 0.06
4751 C 42.194346958818144 97.93865414382235 32.45206602475784 C 0.0 **** -0.24
4752 H 42.10652875022973 98.00443284511857 33.53606178367875 H 0.0 **** 0.06
4753 H 42.6242669488555 98.86251241334458 32.06587513811519 H 0.0 **** 0.06
4754 H 41.206108105807814 97.7874849467483 32.015518578837714 H 0.0 **** 0.06
4755 H 42.838739574356005 97.0992848832392 32.190428603963056 H 0.0 **** 0.06
4756 C 39.92054238503031 26.115640201700444 74.13469987475241 C 0.0 **** -0.24
4757 H 39.761391171458385 26.847797950065058 74.92750296879768 H 0.0 **** 0.06
4758 H 40.45913928655309 26.58290890052291 73.31099725078201 H 0.0 **** 0.06
4759 H 38.95604576151613 25.750636300565986 73.77972492230356 H 0.0 **** 0.06
4760 H 40.50344852505015 25.280790235646123 74.52344103077826 H 0.0 **** 0.06
4761 C 110.44292094072668 87.4690695266406 93.84658169957618 C 0.0 **** -0.24
4762 H 111.17345399601469 88.27278951959768 93.75794011999224 H 0.0 **** 0.06
4763 H 109.65867376635711 87.76588411462374 94.54313120446479 H 0.0 **** 0.06
4764 H 110.93554233135961 86.56973552819025 94.21649150882047 H 0.0 **** 0.06
4765 H 110.00478929612196 87.26773399412376 92.8699388232673 H 0.0 **** 0.06
4766 C 97.00821591218198 101.94418907928342 48.46785618157844 C 0.0 **** -0.24
4767 H 96.9671965125639 102.99278779649671 48.17085965199834 H 0.0 **** 0.06
4768 H 96.30243010444788 101.36915463362965 47.86938942870768 H 0.0 **** 0.06
4769 H 96.74848772931976 101.85618772618005 49.522682116274666 H 0.0 **** 0.06
4770 H 98.01611566397366 101.5610239048072 48.30911343421741 H 0.0 **** 0.06
4771 C 26.21133973513389 35.56081731233172 78.80071649579162 C 0.0 **** -0.24
4772 H 26.390023989962174 34.76444947591153 78.07878928473326 H 0.0 **** 0.06
4773 H 26.592954858561797 35.25779635943479 79.77602616996273 H 0.0 **** 0.06
4774 H 25.14137698183424 35.752839880055745 78.87205165833166 H 0.0 **** 0.06
4775 H 26.7225977602333 36.46644193961683 78.47534753141781 H 0.0 **** 0.06
4776 C 14.463990101889863 66.66003289271744 42.729335070336475 C 0.0 **** -0.24
4777 H 15.278591986260722 66.71626073060241 42.00717723481023 H 0.0 **** 0.06
4778 H 13.673661465837085 67.3545258384471 42.44110248466495 H 0.0 **** 0.06
4779 H 14.836201854298025 66.92459897259536 43.71920776251483 H 0.0 **** 0.06
4780 H 14.065842138036388 65.64497948843366 42.75027730055399 H 0.0 **** 0.06
4781 C 54.052049008127106 97.36870488627778 93.8219750140628 C 0.0 **** -0.24
4782 H 54.4226912900787 96.73322433667032 94.627276561991 H 0.0 **** 0.06
4783 H 53.34440772922279 96.80606498163118 93.21332004308447 H 0.0 **** 0.06
4784 H 54.887807756664714 97.69347133647591 93.20279994939679 H 0.0 **** 0.06
4785 H 53.553747995919544 98.23972724996042 94.2480183156214 H 0.0 **** 0.06
4786 C 81.5992147089608 54.33176761845269 30.92394651597121 C 0.0 **** -0.24
4787 H 81.80498517342824 53.36882048118765 31.39264163858104 H 0.0 **** 0.06
4788 H 80.52979629633143 54.41876866889415 30.727977425373524 H 0.0 **** 0.06
4789 H 82.14757940738349 54.402668301632 29.98425772984467 H 0.0 **** 0.06
4790 H 81.91407452539005 55.134911358741846 31.590456962861083 H 0.0 **** 0.06
4791 C 41.537674910064055 33.927123956020466 70.92068064302413 C 0.0 **** -0.24
4792 H 42.15399043561871 33.52114525024115 70.11785983511696 H 0.0 **** 0.06
4793 H 40.53626400501372 34.133228651803165 70.5405979296201 H 0.0 **** 0.06
4794 H 41.983452342708006 34.85115804960833 71.28920909464125 H 0.0 **** 0.06
4795 H 41.47623688766848 33.20332756491541 71.73324010279816 H 0.0 **** 0.06
4796 C 22.836959556256943 51.67109391516693 104.51897985259772 C 0.0 **** -0.24
4797 H 22.963597337874234 52.75307147226902 104.55208808734938 H 0.0 **** 0.06
4798 H 23.134971352449043 51.24071902210862 105.47570563130824 H 0.0 **** 0.06
4799 H 23.45736534471928 51.25698829088439 103.72525834300028 H 0.0 **** 0.06
4800 H 21.79114005676925 51.434110124682086 104.32490522188832 H 0.0 **** 0.06
4801 C 74.64496796817963 104.99630179006266 32.63523845393502 C 0.0 **** -0.24
4802 H 73.61988067900035 104.64928432114723 32.50859085035475 H 0.0 **** 0.06
4803 H 74.68059269243417 105.74236271161317 33.42955498275023 H 0.0 **** 0.06
4804 H 74.9962051206044 105.4405367869008 31.70368411714236 H 0.0 **** 0.06
4805 H 75.28382606222993 104.15358937826437 32.8985953149425 H 0.0 **** 0.06
4806 C 32.97962221961176 81.27491039279822 70.95450134778228 C 0.0 **** -0.24
4807 H 32.16523534922641 81.24398269251948 70.22961286527391 H 0.0 **** 0.06
4808 H 33.9315765405134 81.34968699700694 70.42779154254 H 0.0 **** 0.06
4809 H 32.9656822218768 80.36455517559097 71.55372399591562 H 0.0 **** 0.06
4810 H 32.85364404976297 82.1401394744802 71.60445966194979 H 0.0 **** 0.06
4811 C 21.873334998961724 5.144073373383037 19.171875876849924 C 0.0 **** -0.24
4812 H 21.26449900178065 5.985941162136953 18.84384838960119 H 0.0 **** 0.06
4813 H 21.30009211547585 4.528326757598066 19.86512146496638 H 0.0 **** 0.06
4814 H 22.768252375613855 5.515261728927953 19.670686255293248 H 0.0 **** 0.06
4815 H 22.16143819807445 4.545310588382435 18.307884904312928 H 0.0 **** 0.06
4816 C 36.02933197249661 17.954683601240106 87.55931890776641 C 0.0 **** -0.24
4817 H 36.366970582176464 16.93565304683294 87.36788829683438 H 0.0 **** 0.06
4818 H 36.75352563578946 18.65963222394825 87.15012855286997 H 0.0 **** 0.06
4819 H 35.93788228122983 18.110903225507656 88.63454081663905 H 0.0 **** 0.06
4820 H 35.06083720461356 18.111416140890697 87.08511800861898 H 0.0 **** 0.06
4821 C 99.78838519155738 58.15938808781189 9.811313225936994 C 0.0 **** -0.24
4822 H 99.46353073576171 59.14447003092366 9.47522258568676 H 0.0 **** 0.06
4823 H 100.27974237594822 57.63797577406376 8.988989007968572 H 0.0 **** 0.06
4824 H 98.92246043368155 57.58463558747343 10.139962906550972 H 0.0 **** 0.06
4825 H 100.4868800507864 58.27044605696619 10.641452283030194 H 0.0 **** 0.06
4826 C 101.81748378312356 8.880513950657146 17.839934979568653 C 0.0 **** -0.24
4827 H 100.76389497232762 8.676253429377454 18.032216079093587 H 0.0 **** 0.06
4828 H 101.91899171984876 9.871464687090466 17.395262510249353 H 0.0 **** 0.06
4829 H 102.21402408253243 8.13166225686038 17.15468638409837 H 0.0 **** 0.06
4830 H 102.3716461338542 8.84468359759859 18.777835828997212 H 0.0 **** 0.06
4831 C 63.57552118391868 88.09496994985433 10.142300151743946 C 0.0 **** -0.24
4832 H 63.866763975133125 88.37027213091895 9.128450509206402 H 0.0 **** 0.06
4833 H 62.53247245434568 88.36595698962387 10.306303544416048 H 0.0 **** 0.06
4834 H 64.20597057809584 88.62370687976944 10.857283059586074 H 0.0 **** 0.06
4835 H 63.69721852112849 87.01987637176317 10.275466595273683 H 0.0 **** 0.06
4836 C 83.36162102117225 34.67830653301357 51.3605782948062 C 0.0 **** -0.24
4837 H 82.84572800854562 35.125341107903324 52.20993521888113 H 0.0 **** 0.06
4838 H 83.66493182543746 35.46358463926833 50.66711909907207 H 0.0 **** 0.06
4839 H 82.69187007048095 33.983735763646735 50.85327379575884 H 0.0 **** 0.06
4840 H 84.24321812233347 34.142361519042694 51.71150592235887 H 0.0 **** 0.06
4841 C 53.47564709148239 7.085579955883475 43.116040994225045 C 0.0 **** -0.24
4842 H 52.54191905810419 7.059910914976527 42.553689836899366 H 0.0 **** 0.06
4843 H 53.72252013887242 8.119106177896057 43.36184996716764 H 0.0 **** 0.06
4844 H 54.27377884022948 6.653469226051527 42.513490004524215 H 0.0 **** 0.06
4845 H 53.36080677904701 6.510252980778461 44.03548886121308 H 0.0 **** 0.06
4846 C 96.13054385377224 67.42654769569825 105.77528237454621 C 0.0 **** -0.24
4847 H 95.88140489216109 68.13203134247776 104.9822726893409 H 0.0 **** 0.06
4848 H 97.0957425336858 66.96708672180179 105.56343141758865 H 0.0 **** 0.06
4849 H 95.36317297626073 66.653593313269 105.82689860232736 H 0.0 **** 0.06
4850 H 96.17978927376471 67.95422956921539 106.72811420330737 H 0.0 **** 0.06
4851 C 97.1818410673329 7.622088057910183 98.07430858809232 C 0.0 **** -0.24
4852 H 98.00753528057575 7.155564766320374 98.61106624971026 H 0.0 **** 0.06
4853 H 97.57688585226725 8.241432684851517 97.26803899048956 H 0.0 **** 0.06
4854 H 96.60606464946368 8.242533028534409 98.76153003644458 H 0.0 **** 0.06
4855 H 96.53687848702494 6.848821751934667 97.65659907572471 H 0.0 **** 0.06
4856 C 71.4741889635003 66.63427367113718 0.8692421503631067 C 0.0 **** -0.24
4857 H 71.02840372309021 65.67516476981564 0.6022394214750193 H 0.0 **** 0.06
4858 H 72.52361118853997 66.48817610956894 1.123802937221285 H 0.0 **** 0.06
4859 H 70.94612118501288 67.05348659688741 1.7256822679998436 H 0.0 **** 0.06
4860 H 71.39610158309767 67.31779653106565 0.023996875562943387 H 0.0 **** 0.06
4861 C 64.4726870481552 72.03912481752866 50.416308379030085 C 0.0 **** -0.24
4862 H 64.83249952842357 72.93437998392153 50.923988324662034 H 0.0 **** 0.06
4863 H 64.1748012025721 71.29700008518492 51.15768526552147 H 0.0 **** 0.06
4864 H 65.26627257677342 71.63161302379993 49.7918167742383 H 0.0 **** 0.06
4865 H 63.6148645626123 72.29601793250254 49.794263945518765 H 0.0 **** 0.06
4866 C 109.2504070989173 18.460079676984684 19.498070076409334 C 0.0 **** -0.24
4867 H 109.80353827646539 17.551438969763655 19.258422954265768 H 0.0 **** 0.06
4868 H 109.14769575978417 19.069749477589134 18.59958751231528 H 0.0 **** 0.06
4869 H 109.78786240447874 19.02250041166364 20.260427837659705 H 0.0 **** 0.06
4870 H 108.26103890241035 18.194316879108037 19.871307900241504 H 0.0 **** 0.06
4871 C 108.18586129873404 36.28303851579962 77.35205339069057 C 0.0 **** -0.24
4872 H 108.25995297396857 35.204635186572446 77.49144637277169 H 0.0 **** 0.06
4873 H 109.11755531933943 36.659050571983244 76.92834481058256 H 0.0 **** 0.06
4874 H 108.00520757113851 36.762733448487836 78.31398568131232 H 0.0 **** 0.06
4875 H 107.3620798323359 36.50601225605172 76.67412158761437 H 0.0 **** 0.06
4876 C 67.27497533272424 53.44761737388991 3.199284959746848 C 0.0 **** -0.24
4877 H 67.74555018469073 53.38617572919282 2.2184384257728738 H 0.0 **** 0.06
4878 H 67.26155805872085 52.45867307516612 3.6586845022910666 H 0.0 **** 0.06
4879 H 66.25302641936115 53.811369567646594 3.0902229760268654 H 0.0 **** 0.06
4880 H 67.83976666812416 54.134251123554115 3.8297939348965713 H 0.0 **** 0.06
4881 C 3.674444396916172 68.24853131600392 63.18105598291075 C 0.0 **** -0.24
4882 H 4.568485543865037 68.60248951334228 63.69393192357742 H 0.0 **** 0.06
4883 H 2.8695573919122808 68.97281529371374 63.31202710592659 H 0.0 **** 0.06
4884 H 3.3713645211748684 67.28852184349772 63.60061790212313 H 0.0 **** 0.06
4885 H 3.8883618023770055 68.130384810566 62.119058595302434 H 0.0 **** 0.06
4886 C 51.6981732752792 2.5204696129083857 78.57311165117983 C 0.0 **** -0.24
4887 H 51.79937818593345 3.128056351065908 77.67306902843791 H 0.0 **** 0.06
4888 H 52.420800180803724 2.852931193428688 79.3182702776491 H 0.0 **** 0.06
4889 H 51.88274250074312 1.475267187783615 78.3270633417381 H 0.0 **** 0.06
4890 H 50.689128329640965 2.627817394216862 78.9718590813784 H 0.0 **** 0.06
4891 C 67.96162206310339 15.27545204643367 66.8112147487137 C 0.0 **** -0.24
4892 H 67.60451854128371 14.246338121767792 66.7632316612923 H 0.0 **** 0.06
4893 H 67.32512779060824 15.90933934510636 66.19316320811599 H 0.0 **** 0.06
4894 H 68.98745490278782 15.321081425157857 66.4449720709159 H 0.0 **** 0.06
4895 H 67.92888387028711 15.622870562234311 67.84350699512908 H 0.0 **** 0.06
4896 C 8.332229409617241 26.177249937450142 39.309749305135426 C 0.0 **** -0.24
4897 H 9.377476873669025 26.082348569503978 39.017201612815256 H 0.0 **** 0.06
4898 H 7.756154485870539 25.361681462293006 38.87182635421067 H 0.0 **** 0.06
4899 H 7.940448119467746 27.13080816083209 38.953655299552935 H 0.0 **** 0.06
4900 H 8.252952452228712 26.135174760265926 40.39566759561944 H 0.0 **** 0.06
4901 C 39.59128624582502 23.836148948161185 3.8150356841587154 C 0.0 **** -0.24
4902 H 38.67148743042645 23.78896778506235 4.3992906666814235 H 0.0 **** 0.06
4903 H 40.39870215246805 24.219206563313026 4.439393888855562 H 0.0 **** 0.06
4904 H 39.44591896445513 24.498829298435368 2.9621794152400014 H 0.0 **** 0.06
4905 H 39.8471013981104 22.83764833723854 3.4603980167103714 H 0.0 **** 0.06
4906 C 4.726686013362283 109.68606904809704 103.69584468522103 C 0.0 **** -0.24
4907 H 4.369794067590959 110.70276043790916 103.86092496227036 H 0.0 **** 0.06
4908 H 5.644102620222213 109.71524319833625 103.10667455123371 H 0.0 **** 0.06
4909 H 3.9675258950763777 109.1172902134331 103.15861819566356 H 0.0 **** 0.06
4910 H 4.926807159520408 109.21002922024195 104.65551875360137 H 0.0 **** 0.06
4911 C 71.54592080339512 53.79743685711707 58.614432141003846 C 0.0 **** -0.24
4912 H 71.4411035213945 53.83310625071741 57.52979681371035 H 0.0 **** 0.06
4913 H 70.88400352644402 53.03118299725681 59.01793960347078 H 0.0 **** 0.06
4914 H 71.28147154436556 54.766646220005484 59.03709574736186 H 0.0 **** 0.06
4915 H 72.57788998294632 53.55839818765194 58.87179544543227 H 0.0 **** 0.06
4916 C 96.87755889845106 103.52261879302407 4.621522935723078 C 0.0 **** -0.24
4917 H 96.10004525262832 104.24855412398088 4.86071990245901 H 0.0 **** 0.06
4918 H 97.85629074170338 103.9878451931104 4.736052737895591 H 0.0 **** 0.06
4919 H 96.75328316901278 103.18373409108007 3.5922515850602394 H 0.0 **** 0.06
4920 H 96.79857898146392 102.66973904847465 5.2958485682 H 0.0 **** 0.06
4921 C 104.19059669098522 22.681239059707735 30.11227529095835 C 0.0 **** -0.24
4922 H 103.10716142693298 22.7481028078709 30.212325329152392 H 0.0 **** 0.06
4923 H 104.52829649380186 23.377452044341798 29.34394521581389 H 0.0 **** 0.06
4924 H 104.4672207021236 21.66547254773816 29.830179083511418 H 0.0 **** 0.06
4925 H 104.65893067887211 22.93419031247062 31.06322357936721 H 0.0 **** 0.06
4926 C 89.40151179954658 93.0305295786936 58.60858599654502 C 0.0 **** -0.24
4927 H 90.01622164290997 93.4804293467123 59.388437749315244 H 0.0 **** 0.06
4928 H 89.19000126234769 93.77449611547864 57.83928897066375 H 0.0 **** 0.06
4929 H 88.46552026261948 92.67917621295571 59.04130683070002 H 0.0 **** 0.06
4930 H 89.93524317748134 92.19027691300491 58.16540774179587 H 0.0 **** 0.06
4931 C 74.22903968314417 50.741073560597044 23.23508982223594 C 0.0 **** -0.24
4932 H 73.72326150769237 49.93443609217299 22.705639071218634 H 0.0 **** 0.06
4933 H 74.28768853477054 51.61857680092796 22.589956359349852 H 0.0 **** 0.06
4934 H 75.2349499367248 50.42227412864825 23.507670452395594 H 0.0 **** 0.06
4935 H 73.67010872889408 50.98987452214594 24.137568096431117 H 0.0 **** 0.06
4936 C 100.96370100874934 49.8460642916231 1.245043930737694 C 0.0 **** -0.24
4937 H 101.40668296753758 50.81114877667453 1.4930776077549979 H 0.0 **** 0.06
4938 H 101.48701325089918 49.05702322792391 1.784146126079051 H 0.0 **** 0.06
4939 H 101.0498341845208 49.67288729942682 0.17225059236635332 H 0.0 **** 0.06
4940 H 99.9117612415579 49.84604012822258 1.5294036043520407 H 0.0 **** 0.06
4941 C 36.325182935737985 37.046109298109066 26.182832960083175 C 0.0 **** -0.24
4942 H 36.52568853493739 37.739459928160024 26.999703296137056 H 0.0 **** 0.06
4943 H 35.981858865019205 36.0946209425267 26.591161645715317 H 0.0 **** 0.06
4944 H 37.23858183322238 36.88685161505119 25.60890332661623 H 0.0 **** 0.06
4945 H 35.55541020035835 37.462699714061095 25.53348707755947 H 0.0 **** 0.06
4946 C 31.34571887702748 74.2702226932574 0.35834871062394313 C 0.0 **** -0.24
4947 H 32.15363178559747 74.3460182415759 1.0871364534415306 H 0.0 **** 0.06
4948 H 30.453475789822164 74.75617710253347 0.753736294225746 H 0.0 **** 0.06
4949 H 31.130960872254434 73.21934064650434 0.1634854964505621 H 0.0 **** 0.06
4950 H 31.645451576959942 74.75884137754032 -0.5680787064246715 H 0.0 **** 0.06
4951 C 86.19151359149201 61.24230071162209 0.8753161875427935 C 0.0 **** -0.24
4952 H 87.15211028488383 61.446164974858306 1.3486354227638344 H 0.0 **** 0.06
4953 H 86.0150087269984 60.167148379418734 0.8613810936897295 H 0.0 **** 0.06
4954 H 86.20288633741666 61.62136397161956 -0.14686699869398012 H 0.0 **** 0.06
4955 H 85.39809050936746 61.735198069000376 1.4369403758822443 H 0.0 **** 0.06
4956 C 60.40389364569435 55.98759186937838 24.799124414735616 C 0.0 **** -0.24
4957 H 61.05687030545988 55.80333978121138 25.6522823056213 H 0.0 **** 0.06
4958 H 60.94978077124597 55.79312849661312 23.875383636685683 H 0.0 **** 0.06
4959 H 60.071940121490286 57.025001693442505 24.81317330911986 H 0.0 **** 0.06
4960 H 59.53824508490354 55.327380397941624 24.85598505074489 H 0.0 **** 0.06
4961 C 20.76440579574937 102.11644729374575 78.68134091119975 C 0.0 **** -0.24
4962 H 21.594987113803516 101.60906341893002 79.17264228361014 H 0.0 **** 0.06
4963 H 20.998334165178765 103.17580387173723 78.57465491210016 H 0.0 **** 0.06
4964 H 19.862493516490105 102.00178015212674 79.28162281174728 H 0.0 **** 0.06
4965 H 20.603537454141613 101.67905227147412 77.6963938754223 H 0.0 **** 0.06
4966 C 27.80773077126787 60.62372518809059 75.08178536110341 C 0.0 **** -0.24
4967 H 27.932713022327164 61.70624167211719 75.10174077037203 H 0.0 **** 0.06
4968 H 26.797737070358863 60.3693246813271 75.40401177983105 H 0.0 **** 0.06
4969 H 28.531318607714468 60.161673106099215 75.75290324679413 H 0.0 **** 0.06
4970 H 27.969054315532787 60.259039254429126 74.06672739278302 H 0.0 **** 0.06
4971 C 23.505942570662352 99.4281402093998 50.13605085444607 C 0.0 **** -0.24
4972 H 23.10487659751899 98.61066526436288 49.5384210027716 H 0.0 **** 0.06
4973 H 23.747114735545868 100.27015255525264 49.48611008639955 H 0.0 **** 0.06
4974 H 24.409034185974637 99.09485272990976 50.64861186160982 H 0.0 **** 0.06
4975 H 22.764011035192063 99.7383253141838 50.87221697369654 H 0.0 **** 0.06
4976 C 1.1042221334082 80.35581178735794 89.33925766893265 C 0.0 **** -0.24
4977 H 1.344392281611647 80.81179853566456 88.37812907140847 H 0.0 **** 0.06
4978 H 1.4501946355495647 81.0029408531521 90.14462695130044 H 0.0 **** 0.06
4979 H 1.5972924951355196 79.38573974428729 89.41335665113365 H 0.0 **** 0.06
4980 H 0.025494166453540856 80.22147261415282 89.417588239427 H 0.0 **** 0.06
4981 C 99.62264250843793 56.89629406402194 65.37116318171907 C 0.0 **** -0.24
4982 H 100.40321036273212 57.64170165655736 65.22075690069505 H 0.0 **** 0.06
4983 H 98.81427044398765 57.06905641033428 64.6596369465965 H 0.0 **** 0.06
4984 H 99.23641270208282 56.97545122383353 66.3872686894416 H 0.0 **** 0.06
4985 H 100.03693408291747 55.899979328617725 65.21603683549388 H 0.0 **** 0.06
4986 C 88.42515363129539 29.695669886717205 35.70560853017582 C 0.0 **** -0.24
4987 H 87.5776209933207 29.12059319177206 36.07912155018181 H 0.0 **** 0.06
4988 H 88.06616247318033 30.476395337293788 35.03403730016635 H 0.0 **** 0.06
4989 H 89.10344119444103 29.034266753666216 35.165925620119566 H 0.0 **** 0.06
4990 H 88.95169573832796 30.15112653373908 36.54355323029006 H 0.0 **** 0.06
4991 C 2.06024597310207 91.95285245506375 30.845042845621265 C 0.0 **** -0.24
4992 H 1.6181196811695315 92.16327627570425 31.81875321198703 H 0.0 **** 0.06
4993 H 3.1020389129406 92.27465575609396 30.84105811020646 H 0.0 **** 0.06
4994 H 1.5102834188157601 92.49123395094314 30.072538907448603 H 0.0 **** 0.06
4995 H 2.009237663302656 90.88156945842806 30.64690224923683 H 0.0 **** 0.06
4996 C 65.55742514173613 99.03331414157329 45.75021927723947 C 0.0 **** -0.24
4997 H 66.16194530593208 99.5202532498134 44.98526804498289 H 0.0 **** 0.06
4998 H 64.5985239565322 98.7384146765834 45.323202193914426 H 0.0 **** 0.06
4999 H 65.38960170327988 99.72462486977585 46.5756424820114 H 0.0 **** 0.06
5000 H 66.07962960120034 98.1499637701205 46.11676438804932 H 0.0 **** 0.06
5001 C 2.021827361641158 6.288722863058069 1.8122280276661984 C 0.0 **** -0.24
5002 H 1.9469637666500148 5.240859763891464 2.1039781456979645 H 0.0 **** 0.06
5003 H 2.9258887183356705 6.436584796245697 1.2203532821502536 H 0.0 **** 0.06
5004 H 2.065307010301666 6.912640587508605 2.705291830782466 H 0.0 **** 0.06
5005 H 1.1500526775382127 6.5639724180139325 1.218588981305074 H 0.0 **** 0.06
5006 C 49.581474566165696 109.80971324457643 61.937034469067044 C 0.0 **** -0.24
5007 H 49.127252014282675 109.5232069204583 62.88526107858043 H 0.0 **** 0.06
5008 H 48.96257316402219 109.44865426242337 61.11512070232503 H 0.0 **** 0.06
5009 H 50.57690783061512 109.37005806269178 61.863755946858404 H 0.0 **** 0.06
5010 H 49.65915134797464 110.8959776843347 61.88429311320053 H 0.0 **** 0.06
5011 C 70.53870057589077 58.02797818689976 25.38394041828397 C 0.0 **** -0.24
5012 H 70.28889462790539 56.998334293943344 25.643663868374375 H 0.0 **** 0.06
5013 H 69.78062711933848 58.69825286920164 25.788544167221147 H 0.0 **** 0.06
5014 H 70.57478690889268 58.13018714956024 24.29996635575253 H 0.0 **** 0.06
5015 H 71.51063255542866 58.28165598391138 25.805790482741344 H 0.0 **** 0.06
5016 C 5.790432994152809 29.272499791910775 58.27024638587483 C 0.0 **** -0.24
5017 H 5.2168434160354025 28.454250051828964 57.83414190091855 H 0.0 **** 0.06
5018 H 5.171813525226611 30.169548079346086 58.30845753380936 H 0.0 **** 0.06
5019 H 6.671465771132006 29.464184753299463 57.657818553725804 H 0.0 **** 0.06
5020 H 6.10021163007292 29.000882432913002 59.27890583784304 H 0.0 **** 0.06
5021 C 65.85277132199104 55.532893731766684 89.23367139314458 C 0.0 **** -0.24
5022 H 66.59977861467092 54.811263011531494 89.56742136469813 H 0.0 **** 0.06
5023 H 64.85928520411815 55.09272095503696 89.31996738144181 H 0.0 **** 0.06
5024 H 66.04431702086825 55.79997302448286 88.19462009238342 H 0.0 **** 0.06
5025 H 65.9096756549236 56.42645755322399 89.85563790951987 H 0.0 **** 0.06
5026 C 91.08624543750602 69.43809918612706 20.86287213846419 C 0.0 **** -0.24
5027 H 90.51964324832693 68.50713830255916 20.90054940904756 H 0.0 **** 0.06
5028 H 90.39922039276678 70.27555726639156 20.740993969496213 H 0.0 **** 0.06
5029 H 91.77714013977607 69.40856492237305 20.02030346423499 H 0.0 **** 0.06
5030 H 91.64675641688973 69.55849359044635 21.789355979526196 H 0.0 **** 0.06
5031 C 45.146800718244435 86.48033009444498 91.00157880022182 C 0.0 **** -0.24
5032 H 46.00284468044083 86.472729954008 91.67560821967868 H 0.0 **** 0.06
5033 H 45.09191012563201 87.44312785910353 90.4941606423084 H 0.0 **** 0.06
5034 H 44.232425746176546 86.31875624199861 91.57397561981934 H 0.0 **** 0.06
5035 H 45.257909449859255 85.68573427422764 90.26333961451013 H 0.0 **** 0.06
5036 C 15.675652772295365 57.32139351189687 48.163186765733926 C 0.0 **** -0.24
5037 H 15.167287805613825 58.28138920561287 48.251243817142395 H 0.0 **** 0.06
5038 H 15.176701165447767 56.71291439923367 47.4081859367722 H 0.0 **** 0.06
5039 H 15.646659115483345 56.80588455094485 49.12332718712351 H 0.0 **** 0.06
5040 H 16.71302106775218 57.4862977607745 47.870211692952694 H 0.0 **** 0.06
5041 C 27.472577321379532 80.58795326200402 84.17668200473089 C 0.0 **** -0.24
5042 H 26.649768533197374 81.21754546156654 84.51381111878734 H 0.0 **** 0.06
5043 H 28.361390029616217 81.20056795183092 84.02931888901314 H 0.0 **** 0.06
5044 H 27.201443071785604 80.10811174136307 83.23689053392684 H 0.0 **** 0.06
5045 H 27.67688900462514 79.82482261567304 84.92802820400333 H 0.0 **** 0.06
5046 C 98.54260469257935 66.17758842867903 10.37000969328794 C 0.0 **** -0.24
5047 H 99.03106051583441 65.99800084673407 11.327510042143274 H 0.0 **** 0.06
5048 H 98.90151783442762 65.45341722861988 9.63752403088671 H 0.0 **** 0.06
5049 H 98.77459069548497 67.18662056081116 10.027410153491857 H 0.0 **** 0.06
5050 H 97.46440042604809 66.07175356390492 10.48642803977421 H 0.0 **** 0.06
5051 C 51.15723782699331 5.707049070050175 32.30023858635542 C 0.0 **** -0.24
5052 H 50.38243571747671 5.224121899547466 32.896198149699444 H 0.0 **** 0.06
5053 H 52.03467040481303 5.062312503214978 32.252567319958416 H 0.0 **** 0.06
5054 H 51.42829183843955 6.6579812271058 32.76065966444884 H 0.0 **** 0.06
5055 H 50.78145030155852 5.886209336991577 31.293166078311685 H 0.0 **** 0.06
5056 C 44.79679085516818 61.14906083091361 83.82012204415014 C 0.0 **** -0.24
5057 H 45.53237256711441 61.03304910595483 83.0244396114283 H 0.0 **** 0.06
5058 H 45.00942941787889 62.05919858712781 84.38148455436183 H 0.0 **** 0.06
5059 H 44.84637076646811 60.289219764707354 84.48932827650916 H 0.0 **** 0.06
5060 H 43.79881110221362 61.21436333467645 83.38657650805845 H 0.0 **** 0.06
5061 C 101.54374714054742 7.131072613348252 58.24551085564259 C 0.0 **** -0.24
5062 H 101.53591637654716 6.7110698068519525 59.25063273115575 H 0.0 **** 0.06
5063 H 101.82547636472654 6.357344325216687 57.52986148852226 H 0.0 **** 0.06
5064 H 102.26311230281377 7.949648933970451 58.198104233743294 H 0.0 **** 0.06
5065 H 100.54923113467481 7.507004543508302 58.00148847592712 H 0.0 **** 0.06
5066 C 76.58345698729681 87.98164911583908 25.84693653854606 C 0.0 **** -0.24
5067 H 76.07250013564817 87.04802595773998 26.081174880343937 H 0.0 **** 0.06
5068 H 77.32786066791607 88.19163575989865 26.616211260294932 H 0.0 **** 0.06
5069 H 75.85802389772118 88.79392110174891 25.81119096915606 H 0.0 **** 0.06
5070 H 77.07757274683371 87.89180999629201 24.879298536608772 H 0.0 **** 0.06
5071 C 18.21586975082431 85.9788673656277 13.69195804151289 C 0.0 **** -0.24
5072 H 18.744209184628403 86.26531384362454 14.60105680798479 H 0.0 **** 0.06
5073 H 18.79448763599987 86.2911006217426 12.821663523048798 H 0.0 **** 0.06
5074 H 17.238544038215707 86.46115475044041 13.671683291452752 H 0.0 **** 0.06
5075 H 18.086550817009282 84.89603095381733 13.672241854318969 H 0.0 **** 0.06
5076 C 53.88657428843483 29.20415981912197 74.88895497076288 C 0.0 **** -0.24
5077 H 53.71709238154968 28.2248848580831 75.33738913606317 H 0.0 **** 0.06
5078 H 54.01847034268609 29.091853370979436 73.81251432860074 H 0.0 **** 0.06
5079 H 54.782719195368124 29.650100263540565 75.31990292014893 H 0.0 **** 0.06
5080 H 53.02903818856444 29.846902113982992 75.0852706794114 H 0.0 **** 0.06
5081 C 37.86215499178371 93.94412916502127 46.154501720905614 C 0.0 **** -0.24
5082 H 37.171657126972036 94.71449800216631 46.498616983279135 H 0.0 **** 0.06
5083 H 37.29954032081832 93.13474077536512 45.68828723845354 H 0.0 **** 0.06
5084 H 38.42478339668378 93.55487799779992 47.00319339093545 H 0.0 **** 0.06
5085 H 38.551681497713446 94.37413393702062 45.42763319432373 H 0.0 **** 0.06
5086 C 24.87648759809457 87.22876276731915 107.0148464795691 C 0.0 **** -0.24
5087 H 24.558312853753478 87.73606175976903 107.92557217449166 H 0.0 **** 0.06
5088 H 25.53713492701047 86.40060229005388 107.27227236427672 H 0.0 **** 0.06
5089 H 25.40843401186632 87.93269794025974 106.37495507516803 H 0.0 **** 0.06
5090 H 24.00264387402268 86.84640886462483 106.48697491561144 H 0.0 **** 0.06
5091 C 7.442712449234165 23.80377407065842 62.64704433584393 C 0.0 **** -0.24
5092 H 8.353775621520583 23.851853223411354 62.049554515627165 H 0.0 **** 0.06
5093 H 7.205615293673304 22.761380907168586 62.86392506449613 H 0.0 **** 0.06
5094 H 6.619740501310133 24.25504853108353 62.0917585310836 H 0.0 **** 0.06
5095 H 7.591828125817386 24.344865897910694 63.58089112742215 H 0.0 **** 0.06
5096 C 7.366681746038411 25.69238556622321 101.14580368554788 C 0.0 **** -0.24
5097 H 8.158122229148358 25.174531735393316 100.60269211811618 H 0.0 **** 0.06
5098 H 7.481728937895475 26.768252022188335 101.01727275062622 H 0.0 **** 0.06
5099 H 7.431104956327838 25.443173799051465 102.20531579641487 H 0.0 **** 0.06
5100 H 6.396811179916243 25.381003931257794 100.75844174659744 H 0.0 **** 0.06
5101 C 17.970474591863855 99.98642026495017 45.857933986704545 C 0.0 **** -0.24
5102 H 18.012212807895622 99.75897422392437 46.9236600345266 H 0.0 **** 0.06
5103 H 18.109117165437226 101.05698014651257 45.70945681161391 H 0.0 **** 0.06
5104 H 17.001720862843953 99.68537921629431 45.46069454845856 H 0.0 **** 0.06
5105 H 18.760098237492134 99.44199500801888 45.34055178384858 H 0.0 **** 0.06
5106 C 32.91216420569058 43.16569986944779 74.9620976099516 C 0.0 **** -0.24
5107 H 32.42339652823866 42.98899414212075 74.00392279240268 H 0.0 **** 0.06
5108 H 33.990487114171074 43.22346615693465 74.81443758245334 H 0.0 **** 0.06
5109 H 32.68132820303162 42.34718143144209 75.64419442051462 H 0.0 **** 0.06
5110 H 32.55283264833298 44.10420864887421 75.38511400766194 H 0.0 **** 0.06
5111 C 57.35262953440264 97.33998644826198 96.49363740345049 C 0.0 **** -0.24
5112 H 57.28471399304101 98.19922460851913 97.160988137988 H 0.0 **** 0.06
5113 H 57.24436280520871 97.67309538734895 95.4606831154824 H 0.0 **** 0.06
5114 H 56.55861471805173 96.63196619419588 96.73192618772649 H 0.0 **** 0.06
5115 H 58.32104027352909 96.85729195819079 96.62057180468813 H 0.0 **** 0.06
5116 C 39.47968136042243 91.63490315805936 6.936539283483228 C 0.0 **** -0.24
5117 H 40.110497802542994 92.52431253011572 6.963286190497001 H 0.0 **** 0.06
5118 H 38.55003688248331 91.86652011770025 6.416512869733822 H 0.0 **** 0.06
5119 H 39.25768692735366 91.31709746268321 7.954983053974786 H 0.0 **** 0.06
5120 H 40.00131106974277 90.83584610933826 6.411257520049105 H 0.0 **** 0.06
5121 C 30.891302477217835 85.63845264654583 16.914470051728955 C 0.0 **** -0.24
5122 H 31.345128655314113 84.993262671006 16.161400672702683 H 0.0 **** 0.06
5123 H 29.846870593505116 85.81725106999357 16.656411994089495 H 0.0 **** 0.06
5124 H 31.425565833886083 86.58753082448004 16.948966039683455 H 0.0 **** 0.06
5125 H 30.947683476416955 85.15368764300752 17.88871836068654 H 0.0 **** 0.06
5126 C 41.689897476177606 11.174701007408913 29.370540371448726 C 0.0 **** -0.24
5127 H 40.93157085355736 10.91488169716023 28.63190420014675 H 0.0 **** 0.06
5128 H 41.57280606918161 10.540447615119362 30.249679158720767 H 0.0 **** 0.06
5129 H 41.57487471547557 12.219594837184097 29.65751135389283 H 0.0 **** 0.06
5130 H 42.68070415078921 11.02262685303074 28.941928264141666 H 0.0 **** 0.06
5131 C 41.02199029265165 110.66803476791651 10.090109517706168 C 0.0 **** -0.24
5132 H 41.06375035624637 110.8954320324845 9.024880755365402 H 0.0 **** 0.06
5133 H 41.89046188744797 111.099973381908 10.587510624010577 H 0.0 **** 0.06
5134 H 41.02215612280969 109.58722650909094 10.230088779560589 H 0.0 **** 0.06
5135 H 40.11096625567197 111.0908516118701 10.516008512975134 H 0.0 **** 0.06
5136 C 97.34556031794418 12.48569833740288 19.402939675396397 C 0.0 **** -0.24
5137 H 96.53932613337423 11.76809731297061 19.55373729191753 H 0.0 **** 0.06
5138 H 96.9259835668041 13.486962484011485 19.303058681521314 H 0.0 **** 0.06
5139 H 97.8939870154142 12.229635785628261 18.496186191285553 H 0.0 **** 0.06
5140 H 98.02094892804145 12.457661186657788 20.257867076963016 H 0.0 **** 0.06
5141 C 14.42737660528745 2.37160189586848 80.18818135674292 C 0.0 **** -0.24
5142 H 15.30444206754818 2.0213623006322337 80.73134990734437 H 0.0 **** 0.06
5143 H 13.74903318515777 1.5365164417553956 80.01621575099523 H 0.0 **** 0.06
5144 H 14.737049783640344 2.7927441440479583 79.23121348444272 H 0.0 **** 0.06
5145 H 13.91901209159876 3.137970179143508 80.7744184880097 H 0.0 **** 0.06
5146 C 69.4136838318143 26.298648044496048 39.600828555121325 C 0.0 **** -0.24
5147 H 68.91892069373125 26.05921961366778 38.65938433896065 H 0.0 **** 0.06
5148 H 70.3152159684413 25.693701404389685 39.7006490455513 H 0.0 **** 0.06
5149 H 68.73903863716976 26.08698955315853 40.43023995148519 H 0.0 **** 0.06
5150 H 69.68271290646891 27.355703183890654 39.61176516808871 H 0.0 **** 0.06
5151 C 48.00146709252522 25.80295917337506 88.08967835464384 C 0.0 **** -0.24
5152 H 47.865639715585814 25.29846989790657 87.13276129770668 H 0.0 **** 0.06
5153 H 47.82683772252631 26.872170277221073 87.96473840335528 H 0.0 **** 0.06
5154 H 49.018419607497265 25.64034512770422 88.44566845160203 H 0.0 **** 0.06
5155 H 47.293914083276775 25.401665899870334 88.81601315086415 H 0.0 **** 0.06
5156 C 96.53099351994598 109.81366997299108 20.04206579360327 C 0.0 **** -0.24
5157 H 95.82817011951784 109.17389278975793 20.575188785885743 H 0.0 **** 0.06
5158 H 97.51937259135394 109.72285092700022 20.492899974275403 H 0.0 **** 0.06
5159 H 96.1975840497222 110.85074966715239 20.103950256433023 H 0.0 **** 0.06
5160 H 96.57754235360392 109.50922882868484 18.996579534977997 H 0.0 **** 0.06
5161 C 52.73897806606435 94.98043570083433 8.78940499269816 C 0.0 **** -0.24
5162 H 51.725748244831436 94.58233682023689 8.735513079071236 H 0.0 **** 0.06
5163 H 53.00179391469716 95.16480730045308 9.831266642236246 H 0.0 **** 0.06
5164 H 52.791283730465594 95.91558185140943 8.230389243113406 H 0.0 **** 0.06
5165 H 53.43536557539106 94.26127651701609 8.359485022975159 H 0.0 **** 0.06
5166 C 100.15818235401646 4.943822040738382 38.60503253357791 C 0.0 **** -0.24
5167 H 100.79970685236837 5.797147438524064 38.38443600304964 H 0.0 **** 0.06
5168 H 100.60125386402525 4.353875123973694 39.408111647795295 H 0.0 **** 0.06
5169 H 100.0556449997529 4.32574495845347 37.712823720233246 H 0.0 **** 0.06
5170 H 99.17537907928605 5.29970100943828 38.9145299109141 H 0.0 **** 0.06
5171 C 37.85591293628238 83.36740276150856 103.94674557440874 C 0.0 **** -0.24
5172 H 38.12881727714398 84.40168618595237 103.73550924347055 H 0.0 **** 0.06
5173 H 37.35185592033673 83.31621355788296 104.91176107384875 H 0.0 **** 0.06
5174 H 38.75458200896307 82.75207018751027 103.97307795377814 H 0.0 **** 0.06
5175 H 37.18719461479543 83.00213869875132 103.16719781287415 H 0.0 **** 0.06
5176 C 85.6717796363996 41.54359545677063 25.801681241373444 C 0.0 **** -0.24
5177 H 85.2138883905019 42.229000480109704 25.088416706203077 H 0.0 **** 0.06
5178 H 86.19104248257915 42.115069457789815 26.571456096813392 H 0.0 **** 0.06
5179 H 86.38295092246159 40.90130295887256 25.28298629932067 H 0.0 **** 0.06
5180 H 84.89828130433688 40.93003406390457 26.26367527158584 H 0.0 **** 0.06
5181 C 83.59575283222892 17.831277250488597 77.99908217754759 C 0.0 **** -0.24
5182 H 83.79174028591706 16.812228328689315 78.33141770883256 H 0.0 **** 0.06
5183 H 83.85793212667386 18.529452513685385 78.79384820475106 H 0.0 **** 0.06
5184 H 82.53785934947459 17.937501422751268 77.75598012601027 H 0.0 **** 0.06
5185 H 84.19487253443287 18.04643463606166 77.11391064219748 H 0.0 **** 0.06
5186 C 83.53206131937628 3.15020622884731 100.96314018969883 C 0.0 **** -0.24
5187 H 84.06301468667624 3.042816073862639 101.90931598616817 H 0.0 **** 0.06
5188 H 82.59443100138401 3.679410138219964 101.13125416608443 H 0.0 **** 0.06
5189 H 83.3238768114361 2.163855599181261 100.54865692841452 H 0.0 **** 0.06
5190 H 84.1485621373701 3.715301611730297 100.26330682721209 H 0.0 **** 0.06
5191 C 80.1184898611628 53.94453112343331 72.01923818569901 C 0.0 **** -0.24
5192 H 80.84025339242544 53.734540881079454 72.8087863166196 H 0.0 **** 0.06
5193 H 79.49780876272285 53.06452707629245 71.85254520604394 H 0.0 **** 0.06
5194 H 80.64814382883611 54.19512446149611 71.10028259889924 H 0.0 **** 0.06
5195 H 79.48970462327304 54.78371587952188 72.31781788056458 H 0.0 **** 0.06
5196 C 24.92183175840367 15.376093365563701 12.315404833793451 C 0.0 **** -0.24
5197 H 24.166998717886372 14.919174002846571 11.67525444468285 H 0.0 **** 0.06
5198 H 24.63145685972657 15.260564507415964 13.359492098757158 H 0.0 **** 0.06
5199 H 25.0073690472544 16.436447436779385 12.076142658675508 H 0.0 **** 0.06
5200 H 25.88292830459463 14.888704180751322 12.14880654801496 H 0.0 **** 0.06
5201 C 54.47291820558928 98.28069645541166 0.7237409709731537 C 0.0 **** -0.24
5202 H 54.82093077159138 97.60530364803708 1.5051304565196801 H 0.0 **** 0.06
5203 H 54.434553619303074 99.29748192437296 1.1137475947455187 H 0.0 **** 0.06
5204 H 53.47775764279706 97.97736224534697 0.3988617118522484 H 0.0 **** 0.06
5205 H 55.159752522532244 98.24085262632093 -0.1225195631896554 H 0.0 **** 0.06
5206 C 83.95357652607007 4.19986612238705 52.92040612486476 C 0.0 **** -0.24
5207 H 83.6747399007656 4.367977332051794 51.88057034576956 H 0.0 **** 0.06
5208 H 85.00657141253524 4.448925462467798 53.05761043955985 H 0.0 **** 0.06
5209 H 83.79205207293381 3.15228920826047 53.175553566968155 H 0.0 **** 0.06
5210 H 83.34436749744826 4.829966314420574 53.56746854561069 H 0.0 **** 0.06
5211 C 83.59555409815886 43.0849651326524 38.24260547614934 C 0.0 **** -0.24
5212 H 83.05699103628797 43.0757532041096 39.19008196012354 H 0.0 **** 0.06
5213 H 84.65715313894401 42.91790936391793 38.42781247867826 H 0.0 **** 0.06
5214 H 83.45802390219274 44.050439448746374 37.75687873631023 H 0.0 **** 0.06
5215 H 83.20955401609342 42.294864735301246 37.5984695947448 H 0.0 **** 0.06
5216 C 67.18325956600161 36.46748917722964 17.80725536704182 C 0.0 **** -0.24
5217 H 66.39437150773608 36.905253848238445 17.19615519350208 H 0.0 **** 0.06
5218 H 66.74403401169353 35.789743337901655 18.53840320285221 H 0.0 **** 0.06
5219 H 67.72297560901953 37.26062831799834 18.32485234972387 H 0.0 **** 0.06
5220 H 67.87407085359324 35.916758050677856 17.168099071297064 H 0.0 **** 0.06
5221 C 107.12990617764854 16.28893663468594 26.355893939164474 C 0.0 **** -0.24
5222 H 107.73122724119247 15.380853957732569 26.39194295972652 H 0.0 **** 0.06
5223 H 106.07266513810448 16.024361185752838 26.36455040472606 H 0.0 **** 0.06
5224 H 107.35900653140142 16.840641657435953 25.44316428587851 H 0.0 **** 0.06
5225 H 107.35713347966642 16.91042339540394 27.22232149816503 H 0.0 **** 0.06
5226 C 35.40011689030871 50.8157943293578 61.25936409054145 C 0.0 **** -0.24
5227 H 34.359102531496205 50.543448869280326 61.08611924484899 H 0.0 **** 0.06
5228 H 35.53173379064589 51.88265920513561 61.07205102047533 H 0.0 **** 0.06
5229 H 36.0417667527222 50.24698077034736 60.58605112717521 H 0.0 **** 0.06
5230 H 35.6677266933323 50.592335797021235 62.29152296833735 H 0.0 **** 0.06
5231 C 13.000505080918913 1.0269622533026848 4.709225531010816 C 0.0 **** -0.24
5232 H 13.836111803851338 1.072971358825228 5.407988956563045 H 0.0 **** 0.06
5233 H 12.898047891492268 0.00874793589032663 4.332445865746749 H 0.0 **** 0.06
5234 H 13.186371011931158 1.7050310270067683 3.8757974495366057 H 0.0 **** 0.06
5235 H 12.082969043309276 1.3198389185092054 5.219563272127132 H 0.0 **** 0.06
5236 C 102.48690430552767 47.55965434104305 94.63945895527668 C 0.0 **** -0.24
5237 H 101.43930603902191 47.30329552620003 94.80485509878712 H 0.0 **** 0.06
5238 H 103.11734304654345 46.72249460553665 94.94054423397982 H 0.0 **** 0.06
5239 H 102.7429137580366 48.43840066520392 95.23037073377304 H 0.0 **** 0.06
5240 H 102.64518726578359 47.77357965955376 93.58231648251721 H 0.0 **** 0.06
5241 C 23.618110867598148 9.536267283487291 65.59901891550369 C 0.0 **** -0.24
5242 H 23.19646769893268 10.524690313012059 65.41792872425397 H 0.0 **** 0.06
5243 H 24.62312461391835 9.640183668037594 66.00942791400796 H 0.0 **** 0.06
5244 H 23.663889531323804 8.983874238247552 64.65991560813872 H 0.0 **** 0.06
5245 H 22.989843839396542 8.997123789721343 66.30666393128499 H 0.0 **** 0.06
5246 C 28.239412321803883 22.304003477388815 41.77883915482721 C 0.0 **** -0.24
5247 H 27.685946022709288 21.920309585502313 40.92108636738301 H 0.0 **** 0.06
5248 H 27.964951513698423 23.344446152557154 41.95215974099018 H 0.0 **** 0.06
5249 H 29.30822466455635 22.23790462447383 41.5796488837382 H 0.0 **** 0.06
5250 H 27.996078313739446 21.711891968066617 42.6615300947814 H 0.0 **** 0.06
5251 C 96.12028918160803 66.44722103520252 85.47940119853234 C 0.0 **** -0.24
5252 H 97.052874347245 66.77815794522434 85.02202671470832 H 0.0 **** 0.06
5253 H 95.886735727054 65.43872588502313 85.13869600784614 H 0.0 **** 0.06
5254 H 95.3161640006864 67.12440833890781 85.19221178449533 H 0.0 **** 0.06
5255 H 96.22786413879555 66.44933877123924 86.5637806722616 H 0.0 **** 0.06
5256 C 41.93552352348422 20.259748649043416 66.84166465564229 C 0.0 **** -0.24
5257 H 42.52897926814204 20.806599294452326 66.10885541055717 H 0.0 **** 0.06
5258 H 41.43372003258352 19.425170180284965 66.35219886741586 H 0.0 **** 0.06
5259 H 41.191365711721886 20.927016784931823 67.27693369499522 H 0.0 **** 0.06
5260 H 42.588778473769054 19.88084410182259 67.62848554436309 H 0.0 **** 0.06
5261 C 103.5111633501075 12.035515296409073 2.241591893193174 C 0.0 **** -0.24
5262 H 104.16285159366157 12.831222911355212 1.8806312880907115 H 0.0 **** 0.06
5263 H 104.11755118441073 11.195861801089222 2.5824519444975778 H 0.0 **** 0.06
5264 H 102.85687511306321 11.706883601785478 1.434224668534739 H 0.0 **** 0.06
5265 H 102.90737550929452 12.408092871406495 3.0690596716494696 H 0.0 **** 0.06
5266 C 100.21813308402145 66.77941954076465 82.03430144245361 C 0.0 **** -0.24
5267 H 99.37125146494981 66.81767215886407 81.34916058713372 H 0.0 **** 0.06
5268 H 100.0193433520063 66.04582295417612 82.81522294495834 H 0.0 **** 0.06
5269 H 100.3635760670959 67.76105028496855 82.48531935326379 H 0.0 **** 0.06
5270 H 101.11609194957602 66.49454053496743 81.48580935405502 H 0.0 **** 0.06
5271 C 70.50390340402606 104.87467929978185 101.19087621233429 C 0.0 **** -0.24
5272 H 69.52450846688504 104.46585532546501 100.94092164961731 H 0.0 **** 0.06
5273 H 70.61283389477279 105.85971545111265 100.73579960496743 H 0.0 **** 0.06
5274 H 71.28172091497089 104.21115613980301 100.81415002326582 H 0.0 **** 0.06
5275 H 70.59370559201597 104.96288605352392 102.27368500354896 H 0.0 **** 0.06
5276 C 79.60982119560408 67.25948516531359 18.62421319043017 C 0.0 **** -0.24
5277 H 79.80300645752995 67.70549108856305 19.599331056237816 H 0.0 **** 0.06
5278 H 80.47354271777814 66.66853848246528 18.317206754841663 H 0.0 **** 0.06
5279 H 79.43126977300498 68.04790752208395 17.892950368105232 H 0.0 **** 0.06
5280 H 78.73328894025902 66.61599860705189 18.68654211038364 H 0.0 **** 0.06
5281 C 53.6136352110965 107.19505565776252 98.0787115652052 C 0.0 **** -0.24
5282 H 53.46518823167883 106.12313288033252 97.95023682810194 H 0.0 **** 0.06
5283 H 54.23378205578743 107.57625147872447 97.26630682682423 H 0.0 **** 0.06
5284 H 54.10799703292617 107.38268647122196 99.03211065382584 H 0.0 **** 0.06
5285 H 52.647164892525375 107.6992147897696 98.06535339660383 H 0.0 **** 0.06
5286 C 36.96419417001607 57.21672849136039 49.58885158548742 C 0.0 **** -0.24
5287 H 37.2305391421757 57.87697519791332 48.763656239217255 H 0.0 **** 0.06
5288 H 36.74012570460184 57.812854178403434 50.47328146064012 H 0.0 **** 0.06
5289 H 37.79924771154151 56.54908921527197 49.80204898713191 H 0.0 **** 0.06
5290 H 36.089261283603946 56.62842554420022 49.314667792810724 H 0.0 **** 0.06
5291 C 51.04988048489682 11.073436278394126 52.08933739342416 C 0.0 **** -0.24
5292 H 51.00816841317419 10.573110141440669 51.12284761369932 H 0.0 **** 0.06
5293 H 51.786449968402565 10.579049394918256 52.72312344889474 H 0.0 **** 0.06
5294 H 50.0702722963149 11.026100469666194 52.56538662368257 H 0.0 **** 0.06
5295 H 51.33392980445808 12.116508223878096 51.94667107169596 H 0.0 **** 0.06
5296 C 23.280272794474058 0.7186786509465373 62.9980661819767 C 0.0 **** -0.24
5297 H 24.0884992670114 1.3833163148523333 62.69289167992292 H 0.0 **** 0.06
5298 H 23.355840498094665 0.5233277247793708 64.0679462174831 H 0.0 **** 0.06
5299 H 23.357556844870658 -0.22081128441800058 62.45095781921515 H 0.0 **** 0.06
5300 H 22.321195467524035 1.1878945171309754 62.780321265610496 H 0.0 **** 0.06
5301 C 30.268888906178745 68.68074353095028 39.3039787022654 C 0.0 **** -0.24
5302 H 30.667949499619283 67.79962560275573 38.800582618075424 H 0.0 **** 0.06
5303 H 30.782793727826743 69.57083262469837 38.93966836705275 H 0.0 **** 0.06
5304 H 30.42424957290723 68.58586800775765 40.3794295435778 H 0.0 **** 0.06
5305 H 29.2020121357873 68.76524915731471 39.09762832084266 H 0.0 **** 0.06
5306 C 38.18596801809211 75.85526730405236 60.60964253660248 C 0.0 **** -0.24
5307 H 37.80503723293657 75.89388208393531 59.589426219242284 H 0.0 **** 0.06
5308 H 37.36673804256703 76.01852694811349 61.30959414104612 H 0.0 **** 0.06
5309 H 38.939360802583664 76.63287027837129 60.74454167358169 H 0.0 **** 0.06
5310 H 38.63432182931722 74.87995062500623 60.793533443444886 H 0.0 **** 0.06
5311 C 103.30637121527755 66.11268827602765 36.39760753489264 C 0.0 **** -0.24
5312 H 102.5096324258163 65.64317422771799 36.97512950420402 H 0.0 **** 0.06
5313 H 104.26642342975896 65.68844845653234 36.69297018291175 H 0.0 **** 0.06
5314 H 103.30864847871112 67.18620167920591 36.58707924987192 H 0.0 **** 0.06
5315 H 103.13949641016853 65.93182057722612 35.335602157089966 H 0.0 **** 0.06
5316 C 65.26172556315109 37.25446370090726 26.730198213046833 C 0.0 **** -0.24
5317 H 64.98422718489002 38.034492701368436 27.439676314078724 H 0.0 **** 0.06
5318 H 65.4193988371755 36.31717718020786 27.26507288686787 H 0.0 **** 0.06
5319 H 66.1806991213172 37.53970035071176 26.217756603497946 H 0.0 **** 0.06
5320 H 64.46268298736969 37.125884463633156 26.000192004872417 H 0.0 **** 0.06
5321 C 109.7080344035434 30.736223027045526 62.638752257875055 C 0.0 **** -0.24
5322 H 108.97340265155637 30.089482414216207 62.15741186058584 H 0.0 **** 0.06
5323 H 110.20317966284003 31.348246833921678 61.88371659634356 H 0.0 **** 0.06
5324 H 110.44869868447401 30.12457678524794 63.15355611400528 H 0.0 **** 0.06
5325 H 109.20679329775999 31.382836494239427 63.35788856593423 H 0.0 **** 0.06
5326 C 110.62413811014791 33.360199463853455 55.87638861548952 C 0.0 **** -0.24
5327 H 111.64233394114983 32.996074000551836 56.016483834654096 H 0.0 **** 0.06
5328 H 109.99101126191155 32.543557657081315 55.53035356719089 H 0.0 **** 0.06
5329 H 110.62350060866643 34.15958933436621 55.13530281286924 H 0.0 **** 0.06
5330 H 110.24171385609003 33.742270553321745 56.8227141868449 H 0.0 **** 0.06
5331 C 14.18597637040206 11.619309072272898 24.152209182372626 C 0.0 **** -0.24
5332 H 14.527262661982547 12.535910143235455 24.63359041248612 H 0.0 **** 0.06
5333 H 13.969470654678286 11.819945923171986 23.10189733790937 H 0.0 **** 0.06
5334 H 13.282936691751772 11.263047360113944 24.64813425251325 H 0.0 **** 0.06
5335 H 14.964152441510446 10.8593695736362 24.22323518438899 H 0.0 **** 0.06
5336 C 56.82443416927083 61.67835836206987 6.2615375234755675 C 0.0 **** -0.24
5337 H 56.32912961253879 62.39636793082241 6.916115592996221 H 0.0 **** 0.06
5338 H 56.67034379951497 61.968666111206005 5.221778728505754 H 0.0 **** 0.06
5339 H 56.4056643462346 60.68609119392198 6.428016989946755 H 0.0 **** 0.06
5340 H 57.89223783684045 61.663980982048315 6.4805063868656845 H 0.0 **** 0.06
5341 C 57.14973287468087 77.07298774668692 52.20719527347046 C 0.0 **** -0.24
5342 H 57.54749586184234 76.23883303694458 52.78596664755088 H 0.0 **** 0.06
5343 H 56.932105721460324 77.90692995844125 52.87521891856187 H 0.0 **** 0.06
5344 H 56.235092543710564 76.76211655036406 51.70330456475426 H 0.0 **** 0.06
5345 H 57.88606896548896 77.38367999546739 51.46551255460474 H 0.0 **** 0.06
5346 C 90.08317177977963 27.931524164641644 7.690386888940665 C 0.0 **** -0.24
5347 H 89.91101616494964 27.077830038495847 7.034683809119372 H 0.0 **** 0.06
5348 H 89.14573038435357 28.465368290151503 7.845862946112959 H 0.0 **** 0.06
5349 H 90.81098255727328 28.600402952733134 7.232361441979819 H 0.0 **** 0.06
5350 H 90.46562481374299 27.58043798672196 8.64920748884046 H 0.0 **** 0.06
5351 C 15.271103577068004 39.589276849528 82.98253401748306 C 0.0 **** -0.24
5352 H 15.501137148597138 38.58064141873556 82.64137748096167 H 0.0 **** 0.06
5353 H 14.219377115608438 39.645023965407 83.268171161404 H 0.0 **** 0.06
5354 H 15.468127654767386 40.29912755704536 82.17937637365088 H 0.0 **** 0.06
5355 H 15.895004354067225 39.83239106370742 83.8435358237857 H 0.0 **** 0.06
5356 C 87.74802488075925 33.272144610798804 52.37618090618078 C 0.0 **** -0.24
5357 H 87.81807667371174 32.419264994108204 53.05121115083488 H 0.0 **** 0.06
5358 H 86.70642781834741 33.577966837620494 52.283920407125 H 0.0 **** 0.06
5359 H 88.13331056901309 32.99181047056692 51.395903173236064 H 0.0 **** 0.06
5360 H 88.336241212862 34.09949670717805 52.77516194226067 H 0.0 **** 0.06
5361 C 33.27068764389844 2.099334111752711 64.27774738298632 C 0.0 **** -0.24
5362 H 33.649001758136706 1.6837943046256498 63.342854384947046 H 0.0 **** 0.06
5363 H 33.71613765024303 1.5665269250456788 65.11814999466749 H 0.0 **** 0.06
5364 H 32.18713338204057 1.991015655092042 64.3104726723886 H 0.0 **** 0.06
5365 H 33.53268793272332 3.1562189776192326 64.3365011997183 H 0.0 **** 0.06
5366 C 102.69871051663176 89.14266432936691 11.150938352437578 C 0.0 **** -0.24
5367 H 102.28591256310438 88.68785954574281 10.250092514440539 H 0.0 **** 0.06
5368 H 103.16248498054466 90.09571071468696 10.895766673651323 H 0.0 **** 0.06
5369 H 103.44647657133663 88.47799444742185 11.58273989431025 H 0.0 **** 0.06
5370 H 101.89862318432307 89.30760052268863 11.872925935500433 H 0.0 **** 0.06
5371 C 95.91180029342826 102.2150596084561 78.0592242370743 C 0.0 **** -0.24
5372 H 95.70532707558624 101.57577134319028 78.91795416430878 H 0.0 **** 0.06
5373 H 95.87920102534434 103.25993480983684 78.36922242163821 H 0.0 **** 0.06
5374 H 95.16277011700288 102.040456766714 77.28741446128092 H 0.0 **** 0.06
5375 H 96.90117310132851 101.98325420608272 77.6639528481967 H 0.0 **** 0.06
5376 C 78.04137472522189 47.05474965717417 101.41285900562458 C 0.0 **** -0.24
5377 H 77.54736576590221 46.252197203825574 101.96172647987373 H 0.0 **** 0.06
5378 H 77.59623444157904 48.010220934271246 101.68858975842248 H 0.0 **** 0.06
5379 H 77.91863561030965 46.890591984566896 100.3419042246339 H 0.0 **** 0.06
5380 H 79.10265872147664 47.06280341431935 101.6599159100954 H 0.0 **** 0.06
5381 C 44.47258329393128 29.383897527132547 75.55738145159671 C 0.0 **** -0.24
5382 H 44.22855253032485 29.128260694140124 76.58915884830316 H 0.0 **** 0.06
5383 H 43.81190882987244 28.840134200024977 74.88266640538382 H 0.0 **** 0.06
5384 H 45.50806505128627 29.111750598989147 75.35149473446552 H 0.0 **** 0.06
5385 H 44.3428115933397 30.45613593709652 75.40894677523136 H 0.0 **** 0.06
5386 C 88.24980764425011 5.368370768539679 52.82053978705905 C 0.0 **** -0.24
5387 H 87.39211150074286 5.611320407729565 53.44672064192878 H 0.0 **** 0.06
5388 H 89.16043417473907 5.409315066329167 53.41935168417624 H 0.0 **** 0.06
5389 H 88.31946091724745 6.0861815007966555 52.0041343537407 H 0.0 **** 0.06
5390 H 88.12845284403767 4.364985710139035 52.41276883063752 H 0.0 **** 0.06
5391 C 88.45786571111742 38.425267132009594 21.233770624007406 C 0.0 **** -0.24
5392 H 87.63260921949097 39.13511712533091 21.172930927647513 H 0.0 **** 0.06
5393 H 89.3820226999917 38.91672451579143 20.927742374814045 H 0.0 **** 0.06
5394 H 88.25878595526154 37.580783525875916 20.57364302706108 H 0.0 **** 0.06
5395 H 88.55612253347903 38.06967089254323 22.258575753746413 H 0.0 **** 0.06
5396 C 37.54113791318599 48.7333948941955 2.752534355087107 C 0.0 **** -0.24
5397 H 36.58704272520117 48.27501081683072 3.0132490572171235 H 0.0 **** 0.06
5398 H 37.978691209688634 48.203854795838154 1.9062908184698415 H 0.0 **** 0.06
5399 H 38.21679352719545 48.67469243347138 3.606608303476591 H 0.0 **** 0.06
5400 H 37.381441529593815 49.777568822276265 2.4861445325366986 H 0.0 **** 0.06
5401 C 65.92156040297841 38.12091333655658 34.75731663232278 C 0.0 **** -0.24
5402 H 64.89769718595981 37.76819698351602 34.63498921467112 H 0.0 **** 0.06
5403 H 65.91339047466258 39.096716714372974 35.24396106220009 H 0.0 **** 0.06
5404 H 66.39536648242239 38.205608583265246 33.78005301587847 H 0.0 **** 0.06
5405 H 66.47787725947266 37.41288591654066 35.371776941904265 H 0.0 **** 0.06
5406 C 79.1255616032849 85.93375076876306 102.74991931534245 C 0.0 **** -0.24
5407 H 79.75581893078612 86.30528078954394 103.55768466402634 H 0.0 **** 0.06
5408 H 79.69884726661496 85.91433373906577 101.82267808754959 H 0.0 **** 0.06
5409 H 78.26368137925695 86.58998630256308 102.6316860578621 H 0.0 **** 0.06
5410 H 78.78558397354499 84.92569822772734 102.98789837316419 H 0.0 **** 0.06
5411 C 71.30735316765879 10.03446432800665 63.616570027303965 C 0.0 **** -0.24
5412 H 71.90816508401201 9.895465704351466 64.51564854583478 H 0.0 **** 0.06
5413 H 70.77157717119361 10.981327740328865 63.68135796429283 H 0.0 **** 0.06
5414 H 70.59107564700717 9.216649071289623 63.52888579530952 H 0.0 **** 0.06
5415 H 71.95819421513268 10.042873646633694 62.742249178857435 H 0.0 **** 0.06
5416 C 51.67813797707935 43.65511774075746 14.422144663596995 C 0.0 **** -0.24
5417 H 52.63809663844838 43.419066684662525 14.880898386974266 H 0.0 **** 0.06
5418 H 51.203795601953345 44.46904052545307 14.970941320803405 H 0.0 **** 0.06
5419 H 51.035934689787496 42.77464458342446 14.4500857748381 H 0.0 **** 0.06
5420 H 51.835434558397566 43.95812068671569 13.387232248654485 H 0.0 **** 0.06
5421 C 21.80969679567471 48.14516507709112 14.929180438228375 C 0.0 **** -0.24
5422 H 21.31096167117377 47.254352926880244 14.547453159674713 H 0.0 **** 0.06
5423 H 22.88029194483255 48.07098844846104 14.738958005290709 H 0.0 **** 0.06
5424 H 21.63494940513499 48.228320385618076 16.00189348423631 H 0.0 **** 0.06
5425 H 21.4107326768752 49.027004128688645 14.427163219862113 H 0.0 **** 0.06
5426 C 55.74642460182395 71.65859109519921 75.6566755076849 C 0.0 **** -0.24
5427 H 56.510877326428556 72.07851648997769 75.0027913926757 H 0.0 **** 0.06
5428 H 56.2229330453759 71.05078985884995 76.42667560928624 H 0.0 **** 0.06
5429 H 55.0685428813096 71.03818741041994 75.0717188451174 H 0.0 **** 0.06
5430 H 55.186000602633875 72.46630017260462 76.12630585684633 H 0.0 **** 0.06
5431 C 61.97408599065844 87.25117388153774 96.66922236245455 C 0.0 **** -0.24
5432 H 62.039169431167295 87.25720856654232 97.75732229661952 H 0.0 **** 0.06
5433 H 61.42807449532218 88.1335439397318 96.33425923085429 H 0.0 **** 0.06
5434 H 61.449232735046024 86.35324109150895 96.34163948007813 H 0.0 **** 0.06
5435 H 62.977460775283134 87.25987777028075 96.24525899231162 H 0.0 **** 0.06
5436 C 40.190288501180596 74.61807623026466 22.715324994728604 C 0.0 **** -0.24
5437 H 40.32009177810613 74.23273572095977 23.72713208237343 H 0.0 **** 0.06
5438 H 39.1547815330446 74.92856284039222 22.57504267798862 H 0.0 **** 0.06
5439 H 40.43590836285792 73.8367693132114 21.996613594274834 H 0.0 **** 0.06
5440 H 40.84921134962898 75.47233587116216 22.564521128637296 H 0.0 **** 0.06
5441 C 48.08848401447698 64.81396296987757 98.98163174088778 C 0.0 **** -0.24
5442 H 48.883817300189705 64.4165669226987 99.61229653604536 H 0.0 **** 0.06
5443 H 47.25842094036236 64.10698847613182 98.95699119612281 H 0.0 **** 0.06
5444 H 48.467177725763975 64.96563957744871 97.9708904253091 H 0.0 **** 0.06
5445 H 47.74386702994431 65.76472278484408 99.38770268871828 H 0.0 **** 0.06
5446 C 55.37225534776684 50.76125169664132 1.1201542542946994 C 0.0 **** -0.24
5447 H 56.25855597524287 50.35430160730176 1.607415557235993 H 0.0 **** 0.06
5448 H 55.56444643649036 51.79223159535437 0.8213770512765883 H 0.0 **** 0.06
5449 H 54.53173772863306 50.733940447988104 1.8134990107997426 H 0.0 **** 0.06
5450 H 55.13704215102905 50.164544858754084 0.2394991714611372 H 0.0 **** 0.06
5451 C 101.35944272539145 1.5626150522088835 67.73579044094856 C 0.0 **** -0.24
5452 H 101.41656124904192 1.707582772001075 66.65644081031724 H 0.0 **** 0.06
5453 H 101.11075539991067 2.5085696054589164 68.21706929907691 H 0.0 **** 0.06
5454 H 102.3216488623591 1.2076512485081992 68.10532906507433 H 0.0 **** 0.06
5455 H 100.5880161440553 0.8260740024991264 67.96207804210661 H 0.0 **** 0.06
5456 C 12.66821815451766 86.78362331683411 73.61820318314835 C 0.0 **** -0.24
5457 H 12.354683074055401 87.0347342342366 74.63067921255504 H 0.0 **** 0.06
5458 H 11.842200513618224 86.30573036751744 73.08988225460621 H 0.0 **** 0.06
5459 H 13.516147813347175 86.10014470626103 73.65944637150437 H 0.0 **** 0.06
5460 H 12.959554763349502 87.69256223839784 73.09102409369609 H 0.0 **** 0.06
5461 C 50.400908881234535 37.8947627223651 41.89975171123103 C 0.0 **** -0.24
5462 H 50.33119718280551 38.850839564052905 41.37964292288821 H 0.0 **** 0.06
5463 H 51.04743472609292 38.00285833429942 42.77143311696135 H 0.0 **** 0.06
5464 H 50.81707252381478 37.14544083376194 41.228313604605404 H 0.0 **** 0.06
5465 H 49.40695491805682 37.58387155947847 42.22193481235482 H 0.0 **** 0.06
5466 C 17.344191320011937 41.01323369116878 9.680457902362107 C 0.0 **** -0.24
5467 H 16.80553684793851 41.88662977298799 10.046424178594023 H 0.0 **** 0.06
5468 H 16.632542078886477 40.27996245595173 9.299718575751157 H 0.0 **** 0.06
5469 H 17.918982250884817 40.573292974908156 10.495656836863304 H 0.0 **** 0.06
5470 H 18.02073059317407 41.31349628825723 8.879167812407218 H 0.0 **** 0.06
5471 C 75.65045626303129 0.18541507818315495 92.97630366326896 C 0.0 **** -0.24
5472 H 76.24316766823858 -0.6434048114967084 93.36147432302693 H 0.0 **** 0.06
5473 H 74.67372774660737 0.18878736140655406 93.4610869252136 H 0.0 **** 0.06
5474 H 75.520910667348 0.06947398025644702 91.90014691629321 H 0.0 **** 0.06
5475 H 76.16257039780328 1.1253272294478052 93.18165697040561 H 0.0 **** 0.06
5476 C 97.983798932735 34.918336663768855 61.73770249502435 C 0.0 **** -0.24
5477 H 97.30624838006979 34.735823985735124 60.90373361549355 H 0.0 **** 0.06
5478 H 98.50285892984412 33.994100800746764 61.99294856265176 H 0.0 **** 0.06
5479 H 97.41244615737938 35.2642428674377 62.59986414011573 H 0.0 **** 0.06
5480 H 98.71153817190365 35.6788731818163 61.45548003929997 H 0.0 **** 0.06
5481 C 54.19209513160425 23.879235865961192 57.59003700894243 C 0.0 **** -0.24
5482 H 53.55488526286143 24.339867185876216 58.3449536287016 H 0.0 **** 0.06
5483 H 55.14283509234548 24.410013894809026 57.54471679301798 H 0.0 **** 0.06
5484 H 53.70009388562221 23.92953847528159 56.6182462922838 H 0.0 **** 0.06
5485 H 54.37113284943905 22.835850547541128 57.85316890999991 H 0.0 **** 0.06
5486 C 49.32314244543556 97.25388503281123 85.15796792325334 C 0.0 **** -0.24
5487 H 49.271564893489554 96.26769129599704 85.61993591895254 H 0.0 **** 0.06
5488 H 48.323429912889964 97.68535461773669 85.1109299990152 H 0.0 **** 0.06
5489 H 49.72856985770714 97.16073680946842 84.15066422830756 H 0.0 **** 0.06
5490 H 49.97056837959074 97.89921413021833 85.75178671215492 H 0.0 **** 0.06
5491 C 69.68123124366224 26.198044326846116 75.63512236734769 C 0.0 **** -0.24
5492 H 70.0606046410391 27.207851663428386 75.79289347199008 H 0.0 **** 0.06
5493 H 68.6503827271842 26.24977309255729 75.28273582822325 H 0.0 **** 0.06
5494 H 69.71676522665462 25.646535551556667 76.57368512456387 H 0.0 **** 0.06
5495 H 70.29510290352653 25.69112110097359 74.89088776752823 H 0.0 **** 0.06
5496 C 110.11655586010232 39.34084181849698 103.18382054893073 C 0.0 **** -0.24
5497 H 109.8079478709936 38.400627776684956 102.72529196076292 H 0.0 **** 0.06
5498 H 109.87118921953133 39.32463053645466 104.24575234572455 H 0.0 **** 0.06
5499 H 109.5944331760501 40.16803876508186 102.70237390177522 H 0.0 **** 0.06
5500 H 111.1915717019061 39.46872159913397 103.0604455527668 H 0.0 **** 0.06
5501 C 102.12016560553178 102.77144054394722 35.82125387973764 C 0.0 **** -0.24
5502 H 101.43731160533935 103.27113315499605 35.13375953996069 H 0.0 **** 0.06
5503 H 101.56379504400411 102.05988637700955 36.43208711509385 H 0.0 **** 0.06
5504 H 102.59218130818658 103.51315766338882 36.46605280454867 H 0.0 **** 0.06
5505 H 102.88540504657624 102.24380131528608 35.252658123977426 H 0.0 **** 0.06
5506 C 74.06347673573141 68.12328881412844 91.66809242966136 C 0.0 **** -0.24
5507 H 74.99956001322465 67.93417010423957 92.1946263800682 H 0.0 **** 0.06
5508 H 74.05791707573317 67.57428779477607 90.72739714736466 H 0.0 **** 0.06
5509 H 73.97025883165267 69.19055566922967 91.46769132087866 H 0.0 **** 0.06
5510 H 73.22696933785822 67.79501208154659 92.2862053367428 H 0.0 **** 0.06
5511 C 61.596173175724985 75.76597753117387 33.37396333554132 C 0.0 **** -0.24
5512 H 62.3319011395142 76.50915821729359 33.6836286926785 H 0.0 **** 0.06
5513 H 61.90977582626212 74.77978099289612 33.715093013064426 H 0.0 **** 0.06
5514 H 61.51590975878831 75.76702365482137 32.286630611327176 H 0.0 **** 0.06
5515 H 60.627107467479675 76.01091928476475 33.810091736445834 H 0.0 **** 0.06
5516 C 58.287985580491124 23.689875858268408 105.4784583340549 C 0.0 **** -0.24
5517 H 57.903821460306034 23.256664467502475 104.55484772241962 H 0.0 **** 0.06
5518 H 58.397905562161355 22.905818870612066 106.2283316710716 H 0.0 **** 0.06
5519 H 57.592029466373674 24.445471403300076 105.84203110430657 H 0.0 **** 0.06
5520 H 59.25730448616562 24.148764461278617 105.28793600421623 H 0.0 **** 0.06
5521 C 68.08668201388627 67.71863061725028 67.55247323971578 C 0.0 **** -0.24
5522 H 68.42805192221564 68.51693463312876 68.21257481433776 H 0.0 **** 0.06
5523 H 67.09580786338381 67.38915110925552 67.86569109222656 H 0.0 **** 0.06
5524 H 68.78291294594135 66.88160933835269 67.60601392562097 H 0.0 **** 0.06
5525 H 68.04016916998438 68.08936450236382 66.52885630053363 H 0.0 **** 0.06
5526 C 71.1489028861091 52.61660569537789 48.47311529462278 C 0.0 **** -0.24
5527 H 70.47943400782835 51.86043882846679 48.88217737093196 H 0.0 **** 0.06
5528 H 71.47687130755455 52.31217836719595 47.47922674668465 H 0.0 **** 0.06
5529 H 72.01599771615422 52.72457858250071 49.12514993419777 H 0.0 **** 0.06
5530 H 70.62420362283908 53.56976101059355 48.40686301109054 H 0.0 **** 0.06
5531 C 47.16431693920356 25.064551246050684 75.5974789235857 C 0.0 **** -0.24
5532 H 47.51889975915394 24.04453517562868 75.74120055405422 H 0.0 **** 0.06
5533 H 47.614830372069946 25.48316371810111 74.69792184279504 H 0.0 **** 0.06
5534 H 47.44314325286452 25.670985590765042 76.45917840753361 H 0.0 **** 0.06
5535 H 46.07848239157052 25.060425072827854 75.49285035634892 H 0.0 **** 0.06
5536 C 108.55878302941863 18.175481271390737 44.56097280271757 C 0.0 **** -0.24
5537 H 108.20267224832864 19.10795611603959 44.12247019961828 H 0.0 **** 0.06
5538 H 108.09721843693256 17.33302370740799 44.04463262797569 H 0.0 **** 0.06
5539 H 108.29297259771215 18.145315237994396 45.616959301080215 H 0.0 **** 0.06
5540 H 109.64261724977001 18.116300295551383 44.456599547213784 H 0.0 **** 0.06
5541 C 10.61906281574106 26.391042543213644 33.2491085358817 C 0.0 **** -0.24
5542 H 11.522042717055342 26.992152108794443 33.137039904200776 H 0.0 **** 0.06
5543 H 10.4563268159892 25.808323530860548 32.342178383030785 H 0.0 **** 0.06
5544 H 9.765536039443063 27.04765536920368 33.41768898825484 H 0.0 **** 0.06
5545 H 10.733638259339202 25.718875496760404 34.09839327409321 H 0.0 **** 0.06
5546 C 41.74946949509052 54.97269322423329 71.3458168911958 C 0.0 **** -0.24
5547 H 40.88723116370835 55.12963599234295 71.99462410924099 H 0.0 **** 0.06
5548 H 41.53802218874998 54.15808331897997 70.65294281582206 H 0.0 **** 0.06
5549 H 42.61840182452207 54.718375146876035 71.9524705291521 H 0.0 **** 0.06
5550 H 41.95216940158576 55.8847054388767 70.78456544338013 H 0.0 **** 0.06
5551 C 28.29383270132496 59.654959719537715 48.85687324884171 C 0.0 **** -0.24
5552 H 27.792169990983126 59.09857688693731 48.06535610971571 H 0.0 **** 0.06
5553 H 28.493915199945576 58.98999986777862 49.697340467461174 H 0.0 **** 0.06
5554 H 27.65412080191487 60.474860523870746 49.184769776646505 H 0.0 **** 0.06
5555 H 29.23408111102748 60.0557306042854 48.47934800082916 H 0.0 **** 0.06
5556 C 26.693866540430882 52.284196511662344 46.17580993960689 C 0.0 **** -0.24
5557 H 27.335275856986748 51.915810504446455 45.37490133461729 H 0.0 **** 0.06
5558 H 25.65924877409555 52.30662078221275 45.83037677680022 H 0.0 **** 0.06
5559 H 27.00498904631575 53.29051307833481 46.45675566523617 H 0.0 **** 0.06
5560 H 26.774803547194253 51.62465786197086 47.039202461166155 H 0.0 **** 0.06
5561 C 76.69166312901817 78.60340659062376 6.900964402585998 C 0.0 **** -0.24
5562 H 77.21305105953499 79.55591823793884 6.8053562042942985 H 0.0 **** 0.06
5563 H 76.77105057164823 78.04973141187304 5.964721790948772 H 0.0 **** 0.06
5564 H 75.64116779643089 78.7863387507611 7.127841311170414 H 0.0 **** 0.06
5565 H 77.14161495778949 78.02251936013374 7.707019726309397 H 0.0 **** 0.06
5566 C 98.78555822456839 76.75777846361761 8.054239791558814 C 0.0 **** -0.24
5567 H 99.47797564987357 77.18159089418106 8.782060441696501 H 0.0 **** 0.06
5568 H 97.9947286674784 77.47759963441975 7.844480887480756 H 0.0 **** 0.06
5569 H 98.34863868494303 75.84491642837006 8.4597739837061 H 0.0 **** 0.06
5570 H 99.321592493822 76.52743313650265 7.133529183329301 H 0.0 **** 0.06
5571 C 43.46056354588339 12.116469726032562 61.33792446411445 C 0.0 **** -0.24
5572 H 42.462300995027405 11.772644687749107 61.06967666092811 H 0.0 **** 0.06
5573 H 43.392918496989864 13.097174341521907 61.80840965703277 H 0.0 **** 0.06
5574 H 44.07492124257196 12.18554608303674 60.439749174654594 H 0.0 **** 0.06
5575 H 43.91309691019225 11.409631938101484 62.0333571524574 H 0.0 **** 0.06
5576 C 6.159830429989155 104.3144000369071 98.88032250309351 C 0.0 **** -0.24
5577 H 5.885921612409536 104.3820299653849 97.82821898882712 H 0.0 **** 0.06
5578 H 7.081713005648096 104.86919149830432 99.05257709414279 H 0.0 **** 0.06
5579 H 6.3083784360457145 103.26907539551112 99.14999561106298 H 0.0 **** 0.06
5580 H 5.361198970650102 104.73676723025844 99.49101025503221 H 0.0 **** 0.06
5581 C 84.68186147996067 22.75318622977083 88.65353415039624 C 0.0 **** -0.24
5582 H 83.77441977161072 22.787553350267007 88.05119027357978 H 0.0 **** 0.06
5583 H 85.53185991664418 23.067349048894517 88.04722552613401 H 0.0 **** 0.06
5584 H 84.84422872215458 21.7350835197575 89.0084109164327 H 0.0 **** 0.06
5585 H 84.57693750943338 23.422759000164202 89.5073098854383 H 0.0 **** 0.06
5586 C 100.86479470359188 28.988924535820274 73.44945003601265 C 0.0 **** -0.24
5587 H 101.48845993387349 28.85099822345228 74.33352232844402 H 0.0 **** 0.06
5588 H 100.29718382593691 29.914159925523904 73.54651740942273 H 0.0 **** 0.06
5589 H 100.1780583310927 28.147998742428683 73.35603341184895 H 0.0 **** 0.06
5590 H 101.49785123369693 29.04202980815961 72.56348784043178 H 0.0 **** 0.06
5591 C 6.772661993144368 24.449146103379586 95.16362086509767 C 0.0 **** -0.24
5592 H 6.4873658309242614 23.510237899548862 95.63826412348419 H 0.0 **** 0.06
5593 H 7.716069956616877 24.315971566912754 94.63460700488037 H 0.0 **** 0.06
5594 H 6.8871139054609785 25.22008136851261 95.92492583315453 H 0.0 **** 0.06
5595 H 5.998228307782881 24.747658976585857 94.45743658624365 H 0.0 **** 0.06
5596 C 45.95895394901545 91.70777173692522 7.22432872791471 C 0.0 **** -0.24
5597 H 45.376207116655806 91.58174610648274 6.311893855078893 H 0.0 **** 0.06
5598 H 46.43612348298943 92.68782530285239 7.217849349626162 H 0.0 **** 0.06
5599 H 46.72143579718063 90.9312166311268 7.277959781861654 H 0.0 **** 0.06
5600 H 45.29931986180395 91.62965402590453 8.089245652388588 H 0.0 **** 0.06
5601 C 72.39222893460534 59.88076452921412 2.4322044177733346 C 0.0 **** -0.24
5602 H 73.328331875063 60.42715126807332 2.3213464063981633 H 0.0 **** 0.06
5603 H 71.94971144259355 60.11060859172875 3.4019650879428696 H 0.0 **** 0.06
5604 H 72.58661408552666 58.810262942120616 2.366557672108229 H 0.0 **** 0.06
5605 H 71.70381387320423 60.17379382917133 1.6394596476354764 H 0.0 **** 0.06
5606 C 32.81297477528523 13.17292974369849 33.254721132322786 C 0.0 **** -0.24
5607 H 33.53354224187211 12.499615583847728 32.790794107132164 H 0.0 **** 0.06
5608 H 32.77747378894793 14.10820503802779 32.69427074536818 H 0.0 **** 0.06
5609 H 33.114436418702354 13.376761015067459 34.28249467471165 H 0.0 **** 0.06
5610 H 31.82705465386539 12.708753346953145 33.25118716637175 H 0.0 **** 0.06
5611 C 27.05047555688492 43.8408866060052 9.20052758908579 C 0.0 **** -0.24
5612 H 27.158312625832252 43.847002017029354 8.115846758181757 H 0.0 **** 0.06
5613 H 27.844681016539766 43.236719541525076 9.64017020106067 H 0.0 **** 0.06
5614 H 26.082243605997803 43.418676692371605 9.467027762130314 H 0.0 **** 0.06
5615 H 27.11871969880133 44.861611401497214 9.577177792577302 H 0.0 **** 0.06
5616 C 72.66652465605497 13.7541982855743 108.53203411465805 C 0.0 **** -0.24
5617 H 71.67860700907087 14.192696198001297 108.67871785467078 H 0.0 **** 0.06
5618 H 72.84971574467878 13.007098704306763 109.30421541874382 H 0.0 **** 0.06
5619 H 73.4240498979646 14.53538758043759 108.59407053592093 H 0.0 **** 0.06
5620 H 72.71081113742643 13.282245251614672 107.55081408710058 H 0.0 **** 0.06
5621 C 3.93020667136353 47.47990538980099 47.846550816423196 C 0.0 **** -0.24
5622 H 4.43793484993993 46.89643499642341 47.07955404430814 H 0.0 **** 0.06
5623 H 4.62961019066644 47.70773792616154 48.65102380649099 H 0.0 **** 0.06
5624 H 3.093035855235371 46.90668326474244 48.24427324171365 H 0.0 **** 0.06
5625 H 3.5610394875183005 48.408341938670304 47.411788977748714 H 0.0 **** 0.06
5626 C 87.68540065700927 53.12770352692492 97.64003493837271 C 0.0 **** -0.24
5627 H 87.36291641522288 52.749289475645526 96.67062770035655 H 0.0 **** 0.06
5628 H 87.35939622883188 52.4440940721309 98.42447167903708 H 0.0 **** 0.06
5629 H 87.24701875206307 54.111060124365444 97.81056307922515 H 0.0 **** 0.06
5630 H 88.77207614409394 53.20679972519228 97.65581061842859 H 0.0 **** 0.06
5631 C 65.42231007468577 102.23284051711742 23.863306587752465 C 0.0 **** -0.24
5632 H 66.29587633655144 102.0039465576267 24.473629672934774 H 0.0 **** 0.06
5633 H 65.13230708412715 101.34675548485019 23.297888728786152 H 0.0 **** 0.06
5634 H 65.66407091963276 103.04131294222942 23.173926631442622 H 0.0 **** 0.06
5635 H 64.59917701516369 102.53924128489152 24.50821528602834 H 0.0 **** 0.06
5636 C 41.43811516074851 10.228433574320235 73.41875584966886 C 0.0 **** -0.24
5637 H 41.78286025295452 10.405841210343965 72.40022010384325 H 0.0 **** 0.06
5638 H 41.80614436292473 9.261090003588947 73.76365983286684 H 0.0 **** 0.06
5639 H 40.34859040905482 10.231671914335593 73.43968503342154 H 0.0 **** 0.06
5640 H 41.81648599323614 11.0150369551817 74.07206312588482 H 0.0 **** 0.06
5641 C 7.71124297553331 33.037589596138844 72.18172587346272 C 0.0 **** -0.24
5642 H 8.355927197842448 32.76402688130665 71.34654240830568 H 0.0 **** 0.06
5643 H 6.671218307713673 33.02798710734152 71.85524581910428 H 0.0 **** 0.06
5644 H 7.973806592231995 34.03613384567262 72.53061330961752 H 0.0 **** 0.06
5645 H 7.844646489884241 32.32221287039198 72.99235544541199 H 0.0 **** 0.06
5646 C 100.90035475123369 1.4886384894537343 87.60331671230333 C 0.0 **** -0.24
5647 H 100.28319558129193 1.7264569746551501 88.470405357326 H 0.0 **** 0.06
5648 H 100.3179499055101 0.9020459391102236 86.89323609921264 H 0.0 **** 0.06
5649 H 101.76989570909683 0.914619044392083 87.92330097035892 H 0.0 **** 0.06
5650 H 101.2299015677648 2.4130996102291817 87.12877242593754 H 0.0 **** 0.06
5651 C 27.03150536432716 3.6287987799275925 29.569797259840243 C 0.0 **** -0.24
5652 H 26.418617887371795 4.465258862507426 29.233374577131002 H 0.0 **** 0.06
5653 H 27.475535152043676 3.8692064752250417 30.535555716485305 H 0.0 **** 0.06
5654 H 27.821113711219823 3.4415535553357586 28.843070664528142 H 0.0 **** 0.06
5655 H 26.409111769887915 2.738742431066214 29.666852326916512 H 0.0 **** 0.06
5656 C 20.382297113631182 20.561744533326078 49.14337389632118 C 0.0 **** -0.24
5657 H 20.548298837889547 21.100022211234062 50.07555853926806 H 0.0 **** 0.06
5658 H 19.471956104278675 20.927467434377547 48.66931093295466 H 0.0 **** 0.06
5659 H 20.279933595172835 19.496520240430982 49.352657655496046 H 0.0 **** 0.06
5660 H 21.22983593454343 20.720747959605006 48.476578129083066 H 0.0 **** 0.06
5661 C 99.0030940048967 63.664254225999656 42.467699096138006 C 0.0 **** -0.24
5662 H 98.55931098003578 63.06208108548893 41.67369093300883 H 0.0 **** 0.06
5663 H 98.95683592327464 64.71810103210038 42.19166309761496 H 0.0 **** 0.06
5664 H 100.04329277013301 63.37056424903149 42.60754345246758 H 0.0 **** 0.06
5665 H 98.45280038919566 63.505685323870864 43.39420569895532 H 0.0 **** 0.06
5666 C 37.46730780456073 72.68637193516045 100.00382822608015 C 0.0 **** -0.24
5667 H 38.339299805933194 73.33965686894823 99.9671472169239 H 0.0 **** 0.06
5668 H 37.57902441003537 71.97766223993817 100.82413041233664 H 0.0 **** 0.06
5669 H 37.38155604497132 72.14274231240779 99.06265968110569 H 0.0 **** 0.06
5670 H 36.570657302691416 73.28557106582376 100.16024747117015 H 0.0 **** 0.06
5671 C 17.30096988123927 66.59587776755814 75.8975871033156 C 0.0 **** -0.24
5672 H 17.609271243361746 66.17203747634042 74.94128408392024 H 0.0 **** 0.06
5673 H 17.05540308451114 65.78863925259719 76.58896887394957 H 0.0 **** 0.06
5674 H 16.424998875967987 67.22720392578351 75.75004121286554 H 0.0 **** 0.06
5675 H 18.114680763239818 67.19205136686728 76.30907137968954 H 0.0 **** 0.06
5676 C 78.69651710591802 58.28433004361125 81.46308047116524 C 0.0 **** -0.24
5677 H 78.37695792003191 57.62144951698252 80.65878383312314 H 0.0 **** 0.06
5678 H 79.56474362890602 58.85780578597837 81.13749939177674 H 0.0 **** 0.06
5679 H 78.96047933047232 57.69062287266365 82.33832870855413 H 0.0 **** 0.06
5680 H 77.88432808657798 58.96540552875939 81.71642192410161 H 0.0 **** 0.06
5681 C 1.8774292483988404 77.12390938641866 33.70537039988548 C 0.0 **** -0.24
5682 H 1.7530700321594566 77.78522522540334 34.563802085568625 H 0.0 **** 0.06
5683 H 1.7236473792256106 77.69048016557173 32.78674020098188 H 0.0 **** 0.06
5684 H 1.1479064617783195 76.31543461076541 33.761431230432066 H 0.0 **** 0.06
5685 H 2.883836988621482 76.70605323338626 33.71195807561608 H 0.0 **** 0.06
5686 C 3.393756864048953 21.092043939873946 79.73263802440758 C 0.0 **** -0.24
5687 H 3.4262384580011798 20.102686436160326 79.27659592615748 H 0.0 **** 0.06
5688 H 2.3597917127235633 21.432318811664175 79.78975904353001 H 0.0 **** 0.06
5689 H 3.974232752238933 21.790289037499917 79.12924571197863 H 0.0 **** 0.06
5690 H 3.8157895639226496 21.042043925668196 80.7374510613003 H 0.0 **** 0.06
5691 C 107.83055695885125 27.801262073876728 98.69510500795778 C 0.0 **** -0.24
5692 H 108.18010813644077 27.554066416854198 97.69234977923243 H 0.0 **** 0.06
5693 H 106.78153490397722 28.093980791731326 98.65112534742971 H 0.0 **** 0.06
5694 H 108.42236526330073 28.625748474944714 99.09239309545117 H 0.0 **** 0.06
5695 H 107.93859767078678 26.93137684296653 99.34213481175617 H 0.0 **** 0.06
5696 C 38.81104467745174 45.0008210026524 27.426604004548963 C 0.0 **** -0.24
5697 H 38.13141193883735 45.07057024314227 28.27590260597968 H 0.0 **** 0.06
5698 H 39.61682728667007 45.724188552361 27.546464117494544 H 0.0 **** 0.06
5699 H 38.265782602633564 45.21199913087818 26.506976484551796 H 0.0 **** 0.06
5700 H 39.22911343229168 43.99542412020156 27.378715107364513 H 0.0 **** 0.06
5701 C 56.53915676057267 47.82374935203791 18.955224824656284 C 0.0 **** -0.24
5702 H 56.21811239910847 46.79537140617634 19.121540968596207 H 0.0 **** 0.06
5703 H 57.24372879932496 48.114917035990885 19.735698697566562 H 0.0 **** 0.06
5704 H 55.67259287959057 48.48338943317464 18.983147427136828 H 0.0 **** 0.06
5705 H 57.02353707280499 47.89948550097395 17.981423249301827 H 0.0 **** 0.06
5706 C 30.322497446161265 107.86234536648871 37.347553898368176 C 0.0 **** -0.24
5707 H 30.514821816315333 107.72983118234744 38.41182454773153 H 0.0 **** 0.06
5708 H 31.03724279824985 107.2712041151947 36.77311596060849 H 0.0 **** 0.06
5709 H 30.4292522597232 108.91513720681986 37.08669671909513 H 0.0 **** 0.06
5710 H 29.309537466636698 107.53168540493394 37.11686616884947 H 0.0 **** 0.06
5711 C 61.2780197491316 93.53994656540748 65.20026775096704 C 0.0 **** -0.24
5712 H 61.28348990428543 93.40975848741863 64.11800536041969 H 0.0 **** 0.06
5713 H 61.702347804020064 92.65431809012159 65.67390544864773 H 0.0 **** 0.06
5714 H 60.25208003479608 93.67960901959779 65.54375418544561 H 0.0 **** 0.06
5715 H 61.872424134039846 94.41374583853056 65.46474444799628 H 0.0 **** 0.06
5716 C 99.76660092376693 98.36394410396301 79.45099087123857 C 0.0 **** -0.24
5717 H 100.4688510204277 99.19525779539117 79.50574519882552 H 0.0 **** 0.06
5718 H 99.43197496080433 98.23935713299089 78.42064513608433 H 0.0 **** 0.06
5719 H 98.9077357513155 98.57191925896169 80.08940037986217 H 0.0 **** 0.06
5720 H 100.25807307291046 97.45114179321081 79.78701583746317 H 0.0 **** 0.06
5721 C 4.834029183912415 47.61514985287408 66.00773294767046 C 0.0 **** -0.24
5722 H 4.412068931801437 48.205843212170976 65.19443002181488 H 0.0 **** 0.06
5723 H 5.202506907018414 46.66704205990209 65.6151153869624 H 0.0 **** 0.06
5724 H 4.0639659003696185 47.42417909371494 66.75487377734281 H 0.0 **** 0.06
5725 H 5.656874083864562 48.16361420281493 66.46580372801208 H 0.0 **** 0.06
5726 C 91.57058176943751 78.63641195367475 110.35693383831418 C 0.0 **** -0.24
5727 H 90.92386617043434 79.51370603549162 110.39157210086829 H 0.0 **** 0.06
5728 H 91.77964870341174 78.2995305344154 111.3726324626247 H 0.0 **** 0.06
5729 H 92.50592987755125 78.89562583298266 109.85998529004858 H 0.0 **** 0.06
5730 H 91.07282904922295 77.84088326339077 109.80399896270445 H 0.0 **** 0.06
5731 C 45.87911149980508 94.73394011442116 4.393194553320086 C 0.0 **** -0.24
5732 H 46.54237410871204 93.95264088140422 4.763498374705222 H 0.0 **** 0.06
5733 H 46.341739774697345 95.22737575332444 3.538426115184052 H 0.0 **** 0.06
5734 H 45.70171065704747 95.46451457747419 5.182715705280884 H 0.0 **** 0.06
5735 H 44.93127597929496 94.29154793174935 4.088823650820871 H 0.0 **** 0.06
5736 C 29.583220426231406 42.77513202313372 39.369520936898994 C 0.0 **** -0.24
5737 H 30.664389872773995 42.90785032799272 39.392480885209295 H 0.0 **** 0.06
5738 H 29.247333182760656 42.36110378981175 40.32088321025833 H 0.0 **** 0.06
5739 H 29.31866437401129 42.09236720460717 38.56217774935584 H 0.0 **** 0.06
5740 H 29.102494275379712 43.73920677012296 39.20254190277217 H 0.0 **** 0.06
5741 C 56.04476015590609 50.00260682410135 59.07485095719048 C 0.0 **** -0.24
5742 H 55.52866410393648 50.90492560595874 59.4039093845104 H 0.0 **** 0.06
5743 H 55.32290708959951 49.19441789193428 58.9553999092937 H 0.0 **** 0.06
5744 H 56.789081083989686 49.719160229688896 59.81838580541648 H 0.0 **** 0.06
5745 H 56.53748130676939 50.194951104264874 58.12160004844554 H 0.0 **** 0.06
5746 C 10.699469874459822 48.68851508130638 10.308618767852323 C 0.0 **** -0.24
5747 H 11.366814573172476 49.42685141570939 10.754205223161065 H 0.0 **** 0.06
5748 H 10.575160994863865 47.85045617271567 10.995808258905583 H 0.0 **** 0.06
5749 H 11.128599706616669 48.32994967507568 9.372543337430045 H 0.0 **** 0.06
5750 H 9.730459197021872 49.146264199501275 10.112787918891158 H 0.0 **** 0.06
5751 C 31.620281817831938 8.508057400398274 39.57825028517138 C 0.0 **** -0.24
5752 H 31.484966639523805 8.894119944515786 40.588958099359274 H 0.0 **** 0.06
5753 H 31.41225161509624 7.437494848842226 39.56829744727034 H 0.0 **** 0.06
5754 H 32.64712588609626 8.681939218596188 39.25673341121066 H 0.0 **** 0.06
5755 H 30.935529516016402 9.017796156515596 38.900641691733085 H 0.0 **** 0.06
5756 C 19.385796047100445 62.474032294834956 61.593963230833396 C 0.0 **** -0.24
5757 H 19.87652420746374 62.264994397639725 62.54446770492612 H 0.0 **** 0.06
5758 H 18.30430806168645 62.434813582720665 61.72753495957039 H 0.0 **** 0.06
5759 H 19.687966648491532 61.73013024075328 60.85763291644099 H 0.0 **** 0.06
5760 H 19.673004472842432 63.466632087426404 61.247595385664596 H 0.0 **** 0.06
5761 C 101.87460195828749 94.40090824608772 44.26855997591815 C 0.0 **** -0.24
5762 H 102.08806568145107 95.46764484300128 44.34000945759357 H 0.0 **** 0.06
5763 H 101.95855789675929 94.08289651142555 43.22904677146005 H 0.0 **** 0.06
5764 H 100.86381660751343 94.20900672494872 44.62750631603532 H 0.0 **** 0.06
5765 H 102.58836050438583 93.84623491166379 44.87814999590367 H 0.0 **** 0.06
5766 C 87.12166486633603 28.13529699418922 62.494578011434044 C 0.0 **** -0.24
5767 H 86.0404055337084 28.26636763396209 62.45821249608798 H 0.0 **** 0.06
5768 H 87.37359119310138 27.410392507966748 63.26884176518627 H 0.0 **** 0.06
5769 H 87.59601359829652 29.090393326288222 62.72273380780348 H 0.0 **** 0.06
5770 H 87.47672134869188 27.774647513155315 61.52979641991311 H 0.0 **** 0.06
5771 C 100.20970306232758 95.5450458248806 31.283726538529777 C 0.0 **** -0.24
5772 H 101.01946587240592 94.98936063223499 31.757310664236627 H 0.0 **** 0.06
5773 H 99.79970937324302 94.95906237405318 30.460923207918313 H 0.0 **** 0.06
5774 H 100.59362415149027 96.48999005348976 30.900750458664618 H 0.0 **** 0.06
5775 H 99.42598895150572 95.74082493031518 32.01624719864904 H 0.0 **** 0.06
5776 C 18.56924262314675 0.9182897500444653 46.083541388238075 C 0.0 **** -0.24
5777 H 19.3396490235191 0.1639616802886792 46.24509911828301 H 0.0 **** 0.06
5778 H 18.214102079815106 1.2865353614998014 47.04619818729162 H 0.0 **** 0.06
5779 H 17.737985323297096 0.4761279046034872 45.53353958762642 H 0.0 **** 0.06
5780 H 18.985826957433062 1.7457442983105125 45.50917112796856 H 0.0 **** 0.06
5781 C 73.82566795104174 14.933924461638064 31.363572883290196 C 0.0 **** -0.24
5782 H 73.51062386847875 14.083621080372499 30.759099480052406 H 0.0 **** 0.06
5783 H 74.67720647672448 15.421123036391052 30.888311447392056 H 0.0 **** 0.06
5784 H 74.11320455240286 14.586278605334012 32.35563073125563 H 0.0 **** 0.06
5785 H 73.00262553077943 15.642605352728403 31.450390241504948 H 0.0 **** 0.06
5786 C 43.17727645297458 68.65380775658451 56.12417383603662 C 0.0 **** -0.24
5787 H 42.19779141067659 68.45811779772384 56.55948427394706 H 0.0 **** 0.06
5788 H 43.119115591352 69.52846585661761 55.47620681337051 H 0.0 **** 0.06
5789 H 43.49430092361638 67.78947642974643 55.54055788510935 H 0.0 **** 0.06
5790 H 43.89869873227491 68.83859666622376 56.920616380463905 H 0.0 **** 0.06
5791 C 21.118206175449558 2.3193977582729985 11.26417078073456 C 0.0 **** -0.24
5792 H 21.931384466055306 2.2574858985169044 10.541184815504266 H 0.0 **** 0.06
5793 H 20.18157053722419 2.0425946454545567 10.781330852455739 H 0.0 **** 0.06
5794 H 21.04525974043179 3.34020399815455 11.641601908768067 H 0.0 **** 0.06
5795 H 21.316769707034467 1.6393809727610176 12.092385373339894 H 0.0 **** 0.06
5796 C 109.10612978210344 84.27469058041616 67.28309351309763 C 0.0 **** -0.24
5797 H 109.69884139819209 83.86881877294236 68.10310739462413 H 0.0 **** 0.06
5798 H 109.71042143560044 84.30180962037868 66.37592377975615 H 0.0 **** 0.06
5799 H 108.78221454716208 85.2840514552293 67.53575583699323 H 0.0 **** 0.06
5800 H 108.23287635114212 83.64264996270349 67.11956715708543 H 0.0 **** 0.06
5801 C 15.220437031684597 105.28989971241431 60.36063650168707 C 0.0 **** -0.24
5802 H 14.935369173763434 104.90616704987356 61.33987919790097 H 0.0 **** 0.06
5803 H 15.667570936805973 104.48748796381467 59.77270159315384 H 0.0 **** 0.06
5804 H 15.94166020985503 106.09752349778654 60.48224092314004 H 0.0 **** 0.06
5805 H 14.334940079656079 105.66642968226881 59.84731971309847 H 0.0 **** 0.06
5806 C 92.6386595099299 13.323639885085584 76.4191828441476 C 0.0 **** -0.24
5807 H 92.4675584100453 14.166343445225948 77.09020813087963 H 0.0 **** 0.06
5808 H 92.68416370261357 12.402006580148907 76.99950616701773 H 0.0 **** 0.06
5809 H 93.58125178150715 13.467836004101912 75.89034159858991 H 0.0 **** 0.06
5810 H 91.82341930566251 13.261879222800758 75.69904833758886 H 0.0 **** 0.06
5811 C 29.629970572423446 14.628415984170424 30.310213224679785 C 0.0 **** -0.24
5812 H 30.66641972263588 14.921372707910425 30.479243621142203 H 0.0 **** 0.06
5813 H 29.31297702531188 13.94293040016803 31.09617463429973 H 0.0 **** 0.06
5814 H 29.54640843060747 14.135183954537375 29.34162235047924 H 0.0 **** 0.06
5815 H 28.99643458035382 15.515294479056884 30.322719726917697 H 0.0 **** 0.06
5816 C 40.782372547684446 43.38161563461031 15.040794947446159 C 0.0 **** -0.24
5817 H 39.76260515719909 43.76226277637136 15.105393702960441 H 0.0 **** 0.06
5818 H 40.76190690648377 42.291202114133 15.029645230557833 H 0.0 **** 0.06
5819 H 41.35342946672003 43.72561098054928 15.903032686373933 H 0.0 **** 0.06
5820 H 41.24945454936807 43.74635361582904 14.125848308664729 H 0.0 **** 0.06
5821 C 43.40337842197272 36.0985608138472 35.31807890059148 C 0.0 **** -0.24
5822 H 42.64680200671896 36.314166605426976 36.07249788182656 H 0.0 **** 0.06
5823 H 42.92251237017334 35.69857333355213 34.42513847096721 H 0.0 **** 0.06
5824 H 44.10794586592445 35.36568695957675 35.710787882147244 H 0.0 **** 0.06
5825 H 43.93562719790276 37.015903561465336 35.06578884231102 H 0.0 **** 0.06
5826 C 84.67733600196613 10.823751827622345 36.72182861336685 C 0.0 **** -0.24
5827 H 85.54502053217942 10.166925338480723 36.77689413906708 H 0.0 **** 0.06
5828 H 84.74737475691285 11.443865542695562 35.82656193350668 H 0.0 **** 0.06
5829 H 84.64861244682419 11.462284245239744 37.60494188903945 H 0.0 **** 0.06
5830 H 83.7691375259501 10.223201383147511 36.67805204025541 H 0.0 **** 0.06
5831 C 67.43968930865066 45.06971880036235 78.70014654940397 C 0.0 **** -0.24
5832 H 67.41497393705868 44.684304339936176 77.68066501658666 H 0.0 **** 0.06
5833 H 67.06164091068547 44.308967170675714 79.38470349230528 H 0.0 **** 0.06
5834 H 66.81556937221467 45.9607033160309 78.76715115978112 H 0.0 **** 0.06
5835 H 68.46442928754976 45.32280197228607 78.9681064476741 H 0.0 **** 0.06
5836 C 48.7694153463238 3.390048013981925 85.9970408743139 C 0.0 **** -0.24
5837 H 49.35876513799889 2.4858680368764112 85.84500430579064 H 0.0 **** 0.06
5838 H 48.827565846759455 4.016161684491351 85.1052387360457 H 0.0 **** 0.06
5839 H 49.16130336597888 3.9399586804677256 86.8528865310641 H 0.0 **** 0.06
5840 H 47.7303580946442 3.119254679054791 86.18369754993923 H 0.0 **** 0.06
5841 C 20.49169129528846 49.67695495315644 78.00666215290765 C 0.0 **** -0.24
5842 H 21.38452151809898 49.966040901366114 78.56036261277399 H 0.0 **** 0.06
5843 H 20.3610782277257 48.59594300965426 78.06573150468022 H 0.0 **** 0.06
5844 H 20.599879799997495 49.972366933395335 76.96278487619956 H 0.0 **** 0.06
5845 H 19.62022710170544 50.17244747770883 78.43515494472473 H 0.0 **** 0.06
5846 C 10.768637913225476 38.46041309273153 39.13483487834758 C 0.0 **** -0.24
5847 H 11.230050048477551 38.65753242827117 38.16607709195856 H 0.0 **** 0.06
5848 H 10.620591874383607 37.38734662242376 39.254352370416115 H 0.0 **** 0.06
5849 H 9.8060973022137 38.968951347679365 39.18809967587732 H 0.0 **** 0.06
5850 H 11.418671264236991 38.829672414739775 39.927837343463366 H 0.0 **** 0.06
5851 C 100.19004166574223 8.873979470249594 70.5217028407275 C 0.0 **** -0.24
5852 H 101.01599679741918 8.596973251747158 69.86668421413742 H 0.0 **** 0.06
5853 H 100.0853712619882 8.12755517457046 71.31036291268158 H 0.0 **** 0.06
5854 H 99.26792930598401 8.92219745351079 69.94285179524967 H 0.0 **** 0.06
5855 H 100.39141948909088 9.84806817848272 70.96757154054687 H 0.0 **** 0.06
5856 C 105.04921627492911 37.85481689276013 6.471603605310605 C 0.0 **** -0.24
5857 H 104.08737815461967 37.42001393302945 6.745925707035127 H 0.0 **** 0.06
5858 H 105.58682741324435 38.14511626891516 7.374053741606673 H 0.0 **** 0.06
5859 H 104.88636208664025 38.73202524649622 5.846114431502343 H 0.0 **** 0.06
5860 H 105.63543261417209 37.11861659310331 5.920136165343791 H 0.0 **** 0.06
5861 C 31.683855858549805 54.2465709513529 12.163041840305567 C 0.0 **** -0.24
5862 H 30.80819742957624 54.26538552341684 12.811548616543632 H 0.0 **** 0.06
5863 H 32.57363429986762 54.480652741857696 12.747408819679407 H 0.0 **** 0.06
5864 H 31.56493595995292 54.98585938942077 11.370304528149404 H 0.0 **** 0.06
5865 H 31.787940766144942 53.25473069759429 11.722297002861296 H 0.0 **** 0.06
5866 C 25.67416705645749 5.7856077918735735 59.479776242244725 C 0.0 **** -0.24
5867 H 25.297374532350887 5.925285936330766 60.49287403062158 H 0.0 **** 0.06
5868 H 26.502918215776134 5.077519954522316 59.49433229629864 H 0.0 **** 0.06
5869 H 26.018346530365847 6.741627104556059 59.08492524853949 H 0.0 **** 0.06
5870 H 24.875811642725353 5.397116103576096 58.846420386225134 H 0.0 **** 0.06
5871 C 29.747385213750817 85.29728982416495 67.25288107127591 C 0.0 **** -0.24
5872 H 29.50728713861035 85.37396903085222 66.19256039785296 H 0.0 **** 0.06
5873 H 29.463565345049417 86.22096827902428 67.75714402017212 H 0.0 **** 0.06
5874 H 30.818624934302647 85.1321249270716 67.37169097094699 H 0.0 **** 0.06
5875 H 29.20028271681909 84.46067050808641 67.68874431390216 H 0.0 **** 0.06
5876 C 79.2663381101307 79.86537621058949 105.64388237276808 C 0.0 **** -0.24
5877 H 79.4109108468865 80.3942992879596 106.58610095176164 H 0.0 **** 0.06
5878 H 78.34720449120596 80.21145921784387 105.17050651501478 H 0.0 **** 0.06
5879 H 79.19685573518822 78.79438575285178 105.83470527180532 H 0.0 **** 0.06
5880 H 80.11115250315142 80.06248612357888 104.98384444891606 H 0.0 **** 0.06
5881 C 24.505367646790802 83.30486556740506 103.18994654514604 C 0.0 **** -0.24
5882 H 24.50784678522787 84.162173120113 102.51666922123842 H 0.0 **** 0.06
5883 H 25.53230004665646 82.98975553734715 103.38058062813502 H 0.0 **** 0.06
5884 H 23.952731658241746 82.48475748579204 102.73145343145153 H 0.0 **** 0.06
5885 H 24.02936191839497 83.58238629825159 104.13057746984943 H 0.0 **** 0.06
5886 C 40.854680866415606 36.55389053599464 106.87130770516254 C 0.0 **** -0.24
5887 H 41.05858100879368 37.62487927285545 106.87656272605876 H 0.0 **** 0.06
5888 H 41.17327746691802 36.11886261789047 107.8190110808205 H 0.0 **** 0.06
5889 H 41.40106285233588 36.08415466915284 106.05352798854115 H 0.0 **** 0.06
5890 H 39.78604639782611 36.3886230558831 106.73628276192865 H 0.0 **** 0.06
5891 C 38.87952770346263 30.004475925020586 107.2771444513874 C 0.0 **** -0.24
5892 H 38.59481501138893 28.9998912128236 107.59010127806206 H 0.0 **** 0.06
5893 H 39.53181985628342 29.9422300364907 106.40566859683028 H 0.0 **** 0.06
5894 H 39.40561052614956 30.5028458183846 108.09070821072451 H 0.0 **** 0.06
5895 H 37.98435672796512 30.57194963541386 107.02123376014735 H 0.0 **** 0.06
5896 C 30.686979792055723 8.544957135092005 12.976226548444856 C 0.0 **** -0.24
5897 H 31.2587410562885 9.419380130371906 12.66433674580972 H 0.0 **** 0.06
5898 H 30.751906066540727 7.775313944223171 12.206780192213373 H 0.0 **** 0.06
5899 H 29.64387050784137 8.827277291340437 13.121247643648744 H 0.0 **** 0.06
5900 H 31.092302993493433 8.159724036079652 13.911397789478613 H 0.0 **** 0.06
5901 C 87.61514224588291 39.93487894493188 56.38573995192932 C 0.0 **** -0.24
5902 H 87.23560926189492 40.35470000009181 57.3175525677397 H 0.0 **** 0.06
5903 H 88.65872638975866 39.64637402486372 56.51545822040662 H 0.0 **** 0.06
5904 H 87.53921564309954 40.680614950012625 55.59436602237644 H 0.0 **** 0.06
5905 H 87.0257739557969 39.05843519564115 56.115871249446194 H 0.0 **** 0.06
5906 C 57.34622965102655 38.78045025406361 55.706811185071786 C 0.0 **** -0.24
5907 H 56.588175485384774 38.05550471387259 55.40977651782896 H 0.0 **** 0.06
5908 H 57.92073579896465 39.0846441330227 54.831853183913154 H 0.0 **** 0.06
5909 H 58.013087924302994 38.32921249069086 56.441654887175844 H 0.0 **** 0.06
5910 H 56.860951145442364 39.65376027227087 56.14457847660299 H 0.0 **** 0.06
5911 C 59.074718372854946 95.13602512878415 93.62172506137414 C 0.0 **** -0.24
5912 H 58.499498012645304 96.01492110706528 93.33272667779643 H 0.0 **** 0.06
5913 H 58.443214401293844 94.24966629256352 93.55298983028689 H 0.0 **** 0.06
5914 H 59.42728720433726 95.25336426816722 94.64559243095978 H 0.0 **** 0.06
5915 H 59.92927500785731 95.02612954084748 92.95339154065037 H 0.0 **** 0.06
5916 C 102.92740387119852 55.37158109764013 98.60953467117747 C 0.0 **** -0.24
5917 H 103.98165095746452 55.64935189774076 98.64365619979617 H 0.0 **** 0.06
5918 H 102.81951973780357 54.41857844698961 98.09279137729811 H 0.0 **** 0.06
5919 H 102.36745044029021 56.14009133064138 98.07666610494203 H 0.0 **** 0.06
5920 H 102.54326887045727 55.28102736978133 99.6262097028262 H 0.0 **** 0.06
5921 C 41.49207555265207 68.55015197739858 84.04942179779971 C 0.0 **** -0.24
5922 H 40.81931035016326 69.08548454544842 83.37959813191321 H 0.0 **** 0.06
5923 H 40.908481278773394 68.01590592437009 84.80027244495146 H 0.0 **** 0.06
5924 H 42.15559315625518 69.26038436135758 84.54341887597924 H 0.0 **** 0.06
5925 H 42.08525551998906 67.83777828433443 83.47572937356503 H 0.0 **** 0.06
5926 C 39.71563188071147 72.89389627076474 107.10480467104892 C 0.0 **** -0.24
5927 H 39.2364706346345 73.20330966390253 108.03374632279247 H 0.0 **** 0.06
5928 H 40.71570835102865 73.32506176537936 107.05090527630009 H 0.0 **** 0.06
5929 H 39.123085593570224 73.24076229723312 106.25878484710005 H 0.0 **** 0.06
5930 H 39.78545445744328 71.80641321733833 107.07743397189249 H 0.0 **** 0.06
5931 C 88.4218481864209 65.91128454447923 51.67245182266401 C 0.0 **** -0.24
5932 H 88.52718900905708 66.5940449508186 50.82991148437308 H 0.0 **** 0.06
5933 H 88.04079515839908 66.45589424864214 52.53696882450001 H 0.0 **** 0.06
5934 H 89.39381571760376 65.48060450615776 51.91422358014815 H 0.0 **** 0.06
5935 H 87.72625607170585 65.11487032479822 51.409399179427304 H 0.0 **** 0.06
5936 C 4.161699857960571 40.28224190321918 100.6879013020116 C 0.0 **** -0.24
5937 H 3.108703295639174 40.11834834802728 100.91602813973896 H 0.0 **** 0.06
5938 H 4.297171093223909 41.295550336789375 100.30786529236798 H 0.0 **** 0.06
5939 H 4.484975766167366 39.565132683982775 99.93311934405881 H 0.0 **** 0.06
5940 H 4.754949650719055 40.15078991443159 101.59278349683768 H 0.0 **** 0.06
5941 C 87.05400571977873 10.814220474917818 62.0248353005648 C 0.0 **** -0.24
5942 H 86.85448799352866 10.987630451031976 60.96820324504347 H 0.0 **** 0.06
5943 H 87.87594282271198 10.10621414125535 62.12802024057211 H 0.0 **** 0.06
5944 H 86.16164236544142 10.408240319600864 62.50070972021544 H 0.0 **** 0.06
5945 H 87.32415068390947 11.756618795698984 62.50320850967802 H 0.0 **** 0.06
5946 C 68.7315295219647 59.82849305840509 22.086356159038814 C 0.0 **** -0.24
5947 H 68.07887289943508 60.34580937252059 21.38381872416784 H 0.0 **** 0.06
5948 H 69.5426927315813 60.49268839990597 22.385181432954937 H 0.0 **** 0.06
5949 H 69.1461353495561 58.93907121756223 21.609160540481014 H 0.0 **** 0.06
5950 H 68.15868078064084 59.53493689254668 22.96638051244136 H 0.0 **** 0.06
5951 C 22.1594551799394 95.90316841679306 54.89636582042596 C 0.0 **** -0.24
5952 H 21.172132289885283 96.35818779038944 54.9802028718231 H 0.0 **** 0.06
5953 H 22.922312456988635 96.64387148183428 55.13540443118445 H 0.0 **** 0.06
5954 H 22.308407787595485 95.54238297004471 53.879163450619075 H 0.0 **** 0.06
5955 H 22.23321774748156 95.06748712616657 55.59301253656242 H 0.0 **** 0.06
5956 C 62.583978933004204 82.60113128051421 56.03158400474752 C 0.0 **** -0.24
5957 H 62.23234981487033 81.5745616874417 55.92715421835922 H 0.0 **** 0.06
5958 H 61.730242598087614 83.26625398337072 56.16115170641812 H 0.0 **** 0.06
5959 H 63.13668039053664 82.8890473475671 55.1371086350652 H 0.0 **** 0.06
5960 H 63.23772323758976 82.67375897488637 56.900789583219826 H 0.0 **** 0.06
5961 C 6.28576479428969 69.04401348579168 26.58496174296681 C 0.0 **** -0.24
5962 H 6.7842033089179665 68.21797642508096 27.093034172978662 H 0.0 **** 0.06
5963 H 7.020028067616664 69.80655294181125 26.325268168563127 H 0.0 **** 0.06
5964 H 5.532079046751278 69.47454317240638 27.243264596692512 H 0.0 **** 0.06
5965 H 5.808206133087893 68.67579094796653 25.677072096566405 H 0.0 **** 0.06
5966 C 86.48397771132599 77.74973348756873 39.933804376097754 C 0.0 **** -0.24
5967 H 87.45385715990996 77.37070949393501 39.61108558541328 H 0.0 **** 0.06
5968 H 86.39002453931451 78.79715177076321 39.64629699023939 H 0.0 **** 0.06
5969 H 86.40059686909169 77.66001273116052 41.01689557821685 H 0.0 **** 0.06
5970 H 85.69163717523358 77.17007394708276 39.45870639107005 H 0.0 **** 0.06
5971 C 48.14149102387243 84.15775065265294 77.90579425938697 C 0.0 **** -0.24
5972 H 48.723068304678215 83.2444291425181 77.78795824870485 H 0.0 **** 0.06
5973 H 47.29439897288959 84.14042516463593 77.21890875542084 H 0.0 **** 0.06
5974 H 48.77058728372974 85.01977263284469 77.68602919180722 H 0.0 **** 0.06
5975 H 47.77663613766543 84.22690231755976 78.93059896868675 H 0.0 **** 0.06
5976 C 105.72022447329714 34.69595361295066 50.794375822077484 C 0.0 **** -0.24
5977 H 105.63454529583065 35.7441932492293 51.07989719344755 H 0.0 **** 0.06
5978 H 106.55580436096102 34.57504557311009 50.104114068896365 H 0.0 **** 0.06
5979 H 104.79878975626528 34.374083051642145 50.31053383590739 H 0.0 **** 0.06
5980 H 105.89362903222343 34.090922541329476 51.68410554250647 H 0.0 **** 0.06
5981 C 19.964185782689754 72.42215096642686 30.56689340795532 C 0.0 **** -0.24
5982 H 19.431770992434338 73.1922499122328 30.009314891655137 H 0.0 **** 0.06
5983 H 20.443022466781883 71.73408542206988 29.86911834093908 H 0.0 **** 0.06
5984 H 19.260754787727137 71.87454765302115 31.19294380840904 H 0.0 **** 0.06
5985 H 20.723403823273827 72.88806843492303 31.196203095264167 H 0.0 **** 0.06
5986 C 81.30219902290003 64.61052307536639 29.752499740923213 C 0.0 **** -0.24
5987 H 81.111383964401 65.63652260011577 30.065242861828665 H 0.0 **** 0.06
5988 H 81.1265606835552 63.93719978468877 30.592828703625685 H 0.0 **** 0.06
5989 H 82.33683358931896 64.51687968994372 29.42139401665122 H 0.0 **** 0.06
5990 H 80.63298012302903 64.34975508626022 28.932749877436464 H 0.0 **** 0.06
5991 C 15.337017348291738 35.06386443524852 24.023110308424975 C 0.0 **** -0.24
5992 H 14.777219355744137 35.67078056286889 24.73558544178931 H 0.0 **** 0.06
5993 H 16.193586768971244 34.613959926080426 24.524789964330864 H 0.0 **** 0.06
5994 H 15.68472848364948 35.693724747953084 23.204512931310433 H 0.0 **** 0.06
5995 H 14.691737631019265 34.278632643113404 23.629715046138188 H 0.0 **** 0.06
5996 C 63.23393201969452 17.95694977237372 1.5770657507503358 C 0.0 **** -0.24
5997 H 64.22489333318566 17.831409874269056 2.0151082355857284 H 0.0 **** 0.06
5998 H 62.4768173552835 17.822077903430113 2.3494307477282774 H 0.0 **** 0.06
5999 H 63.08767055891754 17.216197654312424 0.7909241492687045 H 0.0 **** 0.06
6000 H 63.14888992309618 18.957795313882315 1.1543592916025034 H 0.0 **** 0.06
6001 C 86.30817819429558 39.50819588053065 78.39102210103758 C 0.0 **** -0.24
6002 H 85.23962580097185 39.29379904958381 78.4252354833668 H 0.0 **** 0.06
6003 H 86.4634665773558 40.587262715683835 78.42280394955577 H 0.0 **** 0.06
6004 H 86.72955726543603 39.106638465820936 77.46939687467406 H 0.0 **** 0.06
6005 H 86.79880743780001 39.044887065798264 79.24727243897956 H 0.0 **** 0.06
6006 C 66.09303669860708 86.93743512798478 95.40363454363313 C 0.0 **** -0.24
6007 H 66.81931232343618 87.73173199028535 95.57641171168348 H 0.0 **** 0.06
6008 H 66.15744081932729 86.2058938801773 96.20946968331265 H 0.0 **** 0.06
6009 H 66.30689991612849 86.45037752416785 94.45226335167354 H 0.0 **** 0.06
6010 H 65.08922475602259 87.36144326177376 95.37793596110572 H 0.0 **** 0.06
6011 C 38.50603794987023 6.288093865180073 0.49072037399184865 C 0.0 **** -0.24
6012 H 38.7569638277958 5.245437643070034 0.2950319673195878 H 0.0 **** 0.06
6013 H 38.28700576051688 6.416275714075937 1.5511637189274978 H 0.0 **** 0.06
6014 H 37.63163852621602 6.56733997462166 -0.09658189792185112 H 0.0 **** 0.06
6015 H 39.347236154305335 6.922494933068947 0.21404633554371344 H 0.0 **** 0.06
6016 C 64.16159140959525 76.52488143408884 103.89088287476994 C 0.0 **** -0.24
6017 H 65.20298053086816 76.71025860060172 104.15474980161162 H 0.0 **** 0.06
6018 H 63.88971915637126 75.50894725946638 104.175556215499 H 0.0 **** 0.06
6019 H 64.03299107222156 76.64786107207115 102.815441244368 H 0.0 **** 0.06
6020 H 63.52235797033069 77.2341887274275 104.41736606221752 H 0.0 **** 0.06
6021 C 37.99315400487541 75.35027261244112 39.39687475834691 C 0.0 **** -0.24
6022 H 38.82365006470371 74.67439503926857 39.190146455467755 H 0.0 **** 0.06
6023 H 37.307775010801606 75.35301700754002 38.54851227488075 H 0.0 **** 0.06
6024 H 38.37643356161914 76.35731039380455 39.55775160597685 H 0.0 **** 0.06
6025 H 37.46532586431755 75.01480540939679 40.289289971971044 H 0.0 **** 0.06
6026 C 73.7717696428096 5.676588666983832 70.39451715524581 C 0.0 **** -0.24
6027 H 74.71700297326593 5.9573140774285775 70.85894359698023 H 0.0 **** 0.06
6028 H 72.98995820850598 5.641479974160518 71.15309410092743 H 0.0 **** 0.06
6029 H 73.87300975919514 4.6960906202662045 69.9295830359606 H 0.0 **** 0.06
6030 H 73.50900351469808 6.413328696212773 69.63505099465135 H 0.0 **** 0.06
6031 C 93.53030476136459 31.645235109463258 89.08065667166562 C 0.0 **** -0.24
6032 H 94.02499591346051 30.751870395329107 88.69885841622482 H 0.0 **** 0.06
6033 H 92.64204192413422 31.35629421238795 89.64257840053847 H 0.0 **** 0.06
6034 H 93.24137502069146 32.28378861122933 88.24491338433131 H 0.0 **** 0.06
6035 H 94.21294753816134 32.18816450811717 89.7333948854307 H 0.0 **** 0.06
6036 C 92.74123712883546 76.97019166702819 105.02517893775561 C 0.0 **** -0.24
6037 H 92.37429919158984 76.78415135922762 106.03473790286284 H 0.0 **** 0.06
6038 H 93.12001885595572 77.98931727176341 104.95785834315338 H 0.0 **** 0.06
6039 H 91.92666942904233 76.83685094183642 104.31227114750371 H 0.0 **** 0.06
6040 H 93.54308266637926 76.26834610722688 104.79494579846585 H 0.0 **** 0.06
6041 C 7.0550525904574215 35.68911289461772 48.9975982359185 C 0.0 **** -0.24
6042 H 6.120121794905202 36.06947579074057 48.58540260828977 H 0.0 **** 0.06
6043 H 7.889127038656341 36.27121427843764 48.60360761614447 H 0.0 **** 0.06
6044 H 7.176669825014812 34.64294260843002 48.717907904422674 H 0.0 **** 0.06
6045 H 7.032998755534862 35.77417991489631 50.08416483518454 H 0.0 **** 0.06
6046 C 87.03432494471166 3.3330162579594287 60.868340214227146 C 0.0 **** -0.24
6047 H 87.15644796877186 3.5172787678461646 59.80075319122636 H 0.0 **** 0.06
6048 H 86.15172303696689 2.7142790507063808 61.030487903552824 H 0.0 **** 0.06
6049 H 86.91389785200077 4.2827380725392175 61.389291757156855 H 0.0 **** 0.06
6050 H 87.9147536193179 2.8170596224370286 61.25132171230362 H 0.0 **** 0.06
6051 C 35.53428340252978 14.464166777311007 64.39184063102795 C 0.0 **** -0.24
6052 H 35.75311122757398 14.264727379908372 65.44143012303314 H 0.0 **** 0.06
6053 H 36.44809331342347 14.772154847752066 63.88323611748373 H 0.0 **** 0.06
6054 H 34.79272162411462 15.258903484903161 64.3203329227911 H 0.0 **** 0.06
6055 H 35.14439610842442 13.560235927609149 63.924847480603034 H 0.0 **** 0.06
6056 C 19.12576128515309 22.559804055879976 61.28323790456044 C 0.0 **** -0.24
6057 H 20.096452523870482 22.695975674292548 61.758379423298024 H 0.0 **** 0.06
6058 H 19.267438474551568 22.279216510568098 60.239450596332546 H 0.0 **** 0.06
6059 H 18.561488424185086 23.490802602525193 61.33677828739191 H 0.0 **** 0.06
6060 H 18.575970445715086 21.77289639516997 61.80008132787573 H 0.0 **** 0.06
6061 C 0.18457629800424957 79.88413136849175 49.02085500494604 C 0.0 **** -0.24
6062 H -0.008137749632546765 78.8167002435903 49.131660499304644 H 0.0 **** 0.06
6063 H 0.22308957065708412 80.13782456625574 47.96178456847474 H 0.0 **** 0.06
6064 H 1.1374274003828582 80.1305691873757 49.48970671798361 H 0.0 **** 0.06
6065 H -0.6135526186418963 80.44941615105853 49.50242856864929 H 0.0 **** 0.06
6066 C 86.22080306499248 61.97569408495531 61.71221726643557 C 0.0 **** -0.24
6067 H 85.13290198882905 61.99549257262237 61.786809958075764 H 0.0 **** 0.06
6068 H 86.54381641139989 62.6760087001399 60.941384863942005 H 0.0 **** 0.06
6069 H 86.54920343955708 60.96997343192612 61.45068930522683 H 0.0 **** 0.06
6070 H 86.65456899559337 62.262830694970376 62.669478651044415 H 0.0 **** 0.06
6071 C 50.95794325856525 42.000530695909106 17.69451242631081 C 0.0 **** -0.24
6072 H 50.57825251866893 43.02091134866805 17.636728117305125 H 0.0 **** 0.06
6073 H 51.1126754774221 41.6135012705862 16.687771221286795 H 0.0 **** 0.06
6074 H 50.23574981043424 41.37479156843253 18.218788015415726 H 0.0 **** 0.06
6075 H 51.903994518035404 41.99572074567081 18.23647611855486 H 0.0 **** 0.06
6076 C 16.031902620078057 2.747286130225774 32.155477545186216 C 0.0 **** -0.24
6077 H 16.912880366922366 2.462608848643356 31.58061950820769 H 0.0 **** 0.06
6078 H 16.29973619157539 3.529628690569268 32.866098444074424 H 0.0 **** 0.06
6079 H 15.654436649547605 1.879023227904014 32.69514381252145 H 0.0 **** 0.06
6080 H 15.261125874784753 3.1183496661267327 31.479370428371254 H 0.0 **** 0.06
6081 C 15.270603982596636 47.72600625612164 26.31541339852558 C 0.0 **** -0.24
6082 H 14.213049744795672 47.920679810667274 26.135591261905233 H 0.0 **** 0.06
6083 H 15.553761034875496 48.1296110556812 27.287685991830898 H 0.0 **** 0.06
6084 H 15.864412103287659 48.20314253630945 25.5355226128799 H 0.0 **** 0.06
6085 H 15.44907179920482 46.65097790094104 26.302260983181185 H 0.0 **** 0.06
6086 C 81.13015329741165 71.7749184366732 51.5933493067883 C 0.0 **** -0.24
6087 H 80.99037756897349 72.25162803664307 52.563623721999846 H 0.0 **** 0.06
6088 H 81.33386948245436 70.71423987255497 51.73508270866387 H 0.0 **** 0.06
6089 H 81.96865926236504 72.24146396984793 51.07729340659864 H 0.0 **** 0.06
6090 H 80.22456357348082 71.89436421388041 50.99722283391219 H 0.0 **** 0.06
6091 C 52.39004459307989 61.35994032973021 49.84781905410642 C 0.0 **** -0.24
6092 H 53.08627547670818 60.643285905462506 49.40974847537954 H 0.0 **** 0.06
6093 H 51.37626893980854 60.96126702122902 49.79189646930332 H 0.0 **** 0.06
6094 H 52.442456276391226 62.29844588848337 49.29720304107908 H 0.0 **** 0.06
6095 H 52.65647515637397 61.53355752223405 50.890182011227566 H 0.0 **** 0.06
6096 C 71.61662716782419 18.25054936420345 23.71791465994953 C 0.0 **** -0.24
6097 H 71.70048717468455 19.336879302237392 23.754404597996583 H 0.0 **** 0.06
6098 H 70.59093003906713 17.959099852007085 23.94379805812578 H 0.0 **** 0.06
6099 H 72.29046526213182 17.810520014559074 24.45305282815903 H 0.0 **** 0.06
6100 H 71.885045777711 17.898993958033444 22.722124554272824 H 0.0 **** 0.06
6101 C 54.64934688358221 66.59899161967849 99.1665131148662 C 0.0 **** -0.24
6102 H 55.41534277585862 66.38836152629517 99.91242393939842 H 0.0 **** 0.06
6103 H 53.677922445977856 66.6763768893137 99.65552318444861 H 0.0 **** 0.06
6104 H 54.62395308925488 65.79211165943889 98.433848364364 H 0.0 **** 0.06
6105 H 54.87940922628127 67.53810259803583 98.66488522544228 H 0.0 **** 0.06
6106 C 65.88889699825003 71.61254306849506 37.69778784187801 C 0.0 **** -0.24
6107 H 66.73876526194061 70.96323921872917 37.48925453664959 H 0.0 **** 0.06
6108 H 65.87382124503095 72.43308866641965 36.98033931910504 H 0.0 **** 0.06
6109 H 65.97770986048498 72.01347516807697 38.707983125180455 H 0.0 **** 0.06
6110 H 64.96501359922199 71.0398099340839 37.61435537957431 H 0.0 **** 0.06
6111 C 95.84849315100533 35.59792664156839 6.945017579772639 C 0.0 **** -0.24
6112 H 95.85231444466564 34.69371869167571 6.336058525563203 H 0.0 **** 0.06
6113 H 95.82556167187276 35.324574221995874 8.000051866391232 H 0.0 **** 0.06
6114 H 94.96708933528487 36.193954788809975 6.7043485316738725 H 0.0 **** 0.06
6115 H 96.74660065361991 36.179087657579714 6.739344426912993 H 0.0 **** 0.06
6116 C 22.13554451341122 55.011660731378086 46.7621986860087 C 0.0 **** -0.24
6117 H 22.993585478809393 54.60996085906834 47.30277590755691 H 0.0 **** 0.06
6118 H 21.407552402067722 54.21831021362933 46.595705073290844 H 0.0 **** 0.06
6119 H 22.465897800295153 55.40980251706235 45.802914815238864 H 0.0 **** 0.06
6120 H 21.678805658869123 55.808344969402185 47.34812743707121 H 0.0 **** 0.06
6121 C 41.73352513969445 91.52630170629564 100.11067658269428 C 0.0 **** -0.24
6122 H 41.76603813446934 90.6313883801096 100.7313292448274 H 0.0 **** 0.06
6123 H 42.68003730093983 91.63339829231543 99.57944607248464 H 0.0 **** 0.06
6124 H 41.57097801196318 92.40016316435981 100.74193670134139 H 0.0 **** 0.06
6125 H 40.919851675470056 91.44134803716793 99.39096618442164 H 0.0 **** 0.06
6126 C 89.17467875026452 57.49153893728504 84.87896155955842 C 0.0 **** -0.24
6127 H 88.30717301834198 57.266211780460594 84.25927278963754 H 0.0 **** 0.06
6128 H 90.07911670568267 57.435525958783785 84.27237165458995 H 0.0 **** 0.06
6129 H 89.23819570258446 56.76794887757046 85.69228609802751 H 0.0 **** 0.06
6130 H 89.07548276971283 58.49534746646265 85.29232984348342 H 0.0 **** 0.06
6131 C 58.19471220626179 107.87491598649751 100.99470936454436 C 0.0 **** -0.24
6132 H 58.842809250006525 108.49729481304075 101.61135393516525 H 0.0 **** 0.06
6133 H 57.63251433950902 108.50683686815432 100.30641775361386 H 0.0 **** 0.06
6134 H 57.50177981567873 107.3277190557684 101.6338219915213 H 0.0 **** 0.06
6135 H 58.8009103364613 107.16834423775686 100.42738763368907 H 0.0 **** 0.06
6136 C 19.52000064300981 44.68127948093891 57.455242137452615 C 0.0 **** -0.24
6137 H 20.028425744005006 44.836399250685886 56.503539707483355 H 0.0 **** 0.06
6138 H 19.263937758979125 45.64693615703406 57.89209881355055 H 0.0 **** 0.06
6139 H 20.17727337726467 44.13800615078377 58.13418276364507 H 0.0 **** 0.06
6140 H 18.609807493703926 44.103848007286786 57.290320625794976 H 0.0 **** 0.06
6141 C 85.49325821108086 88.82103748708283 97.64489441002583 C 0.0 **** -0.24
6142 H 85.61725402546246 88.14161329102745 96.80118737059925 H 0.0 **** 0.06
6143 H 86.41040469310259 89.39143941361486 97.7895860538342 H 0.0 **** 0.06
6144 H 85.27629245898241 88.2458593386785 98.54515476424814 H 0.0 **** 0.06
6145 H 84.66817254173304 89.5036017147924 97.44242608532213 H 0.0 **** 0.06
6146 C 74.56438867647216 19.058647762446753 101.59071456592346 C 0.0 **** -0.24
6147 H 75.04227504976888 18.221748138363864 102.09965891458819 H 0.0 **** 0.06
6148 H 75.0262135487153 19.20157925059584 100.6133946862376 H 0.0 **** 0.06
6149 H 74.68708947157631 19.963585798271197 102.1861576102267 H 0.0 **** 0.06
6150 H 73.50263041530746 18.84889725174449 101.46393990576854 H 0.0 **** 0.06
6151 C 97.9984379472686 40.80880688427416 103.05577995974353 C 0.0 **** -0.24
6152 H 98.37969055028222 40.46598723740476 104.01715440541427 H 0.0 **** 0.06
6153 H 98.61680845254511 41.63000883388264 102.69323753128317 H 0.0 **** 0.06
6154 H 96.97063587612544 41.15108317469185 103.17340877578528 H 0.0 **** 0.06
6155 H 98.02878973999117 39.98779689535576 102.33971356630151 H 0.0 **** 0.06
6156 C 50.32935722616455 53.67766950222136 87.19763325403818 C 0.0 **** -0.24
6157 H 51.3907366016829 53.77968769166253 87.42291046321822 H 0.0 **** 0.06
6158 H 49.824616249311504 53.1956795171366 88.03562967010734 H 0.0 **** 0.06
6159 H 50.20523023097621 53.071818895407375 86.30000901887183 H 0.0 **** 0.06
6160 H 49.89740484604613 54.664750732376376 87.0323047163624 H 0.0 **** 0.06
6161 C 11.883148843015675 83.10416104016078 18.14715308927174 C 0.0 **** -0.24
6162 H 12.49830744368559 82.92995382069051 17.264064476394765 H 0.0 **** 0.06
6163 H 11.181173313693705 82.27974468477625 18.26853148043915 H 0.0 **** 0.06
6164 H 11.332194539137888 84.03744416817912 18.0273168204763 H 0.0 **** 0.06
6165 H 12.522577986241629 83.17100621532212 19.026971133361315 H 0.0 **** 0.06
6166 C 59.91587503211409 31.662311679035156 70.93279840144683 C 0.0 **** -0.24
6167 H 59.31667339222318 30.812006589388318 70.60770247211121 H 0.0 **** 0.06
6168 H 60.94808272605829 31.5247365007176 70.60776890239754 H 0.0 **** 0.06
6169 H 59.88312829091912 31.73576464262038 72.01912200316565 H 0.0 **** 0.06
6170 H 59.516550741474404 32.57686920389684 70.49457315449212 H 0.0 **** 0.06
6171 C 1.6499815040449706 75.88781735171186 58.275037562242915 C 0.0 **** -0.24
6172 H 0.565533093900104 75.98014403878992 58.22192331057448 H 0.0 **** 0.06
6173 H 2.0104960997734116 75.33485343268116 57.40824761645197 H 0.0 **** 0.06
6174 H 1.9241284833691026 75.35590755618492 59.18707386910927 H 0.0 **** 0.06
6175 H 2.098908620547469 76.88130476137832 58.286126814135116 H 0.0 **** 0.06
6176 C 63.483116019286186 85.0474294848047 50.60719691887445 C 0.0 **** -0.24
6177 H 63.09919046099836 84.19544475122063 50.04538916567825 H 0.0 **** 0.06
6178 H 64.41561767608913 85.38912069802035 50.15796144857765 H 0.0 **** 0.06
6179 H 63.66428371206237 84.74857424363859 51.639405966512285 H 0.0 **** 0.06
6180 H 62.750691045927795 85.85523535815162 50.58612256350597 H 0.0 **** 0.06
6181 C 97.54678332677545 47.214955628757366 36.38392040302057 C 0.0 **** -0.24
6182 H 96.67582211294962 46.64507081236172 36.060137148947184 H 0.0 **** 0.06
6183 H 98.25197785437004 47.301361096729494 35.5560166585675 H 0.0 **** 0.06
6184 H 98.0260015169968 46.70321173415675 37.21760005757356 H 0.0 **** 0.06
6185 H 97.23316797219304 48.20974931912846 36.69973939398606 H 0.0 **** 0.06
6186 C 67.2488494397536 99.999483936919 105.21602288813689 C 0.0 **** -0.24
6187 H 67.97004783586391 99.46605349587836 105.83569586505389 H 0.0 **** 0.06
6188 H 66.24873451685312 99.87283566525164 105.63158290926233 H 0.0 **** 0.06
6189 H 67.27539395402522 99.59955016759142 104.2022985123523 H 0.0 **** 0.06
6190 H 67.5025623360801 101.05955883547351 105.19560892821254 H 0.0 **** 0.06
6191 C 0.5036567461522878 17.44636699843295 24.276555983547638 C 0.0 **** -0.24
6192 H -0.26551703699566076 16.765971904865552 24.64289322332388 H 0.0 **** 0.06
6193 H 1.2529557794509998 16.880773442243196 23.722567150600923 H 0.0 **** 0.06
6194 H 0.9768313158530475 17.947561424202604 25.120892232017866 H 0.0 **** 0.06
6195 H 0.04886413665468581 18.18875364008335 23.620859042203705 H 0.0 **** 0.06
6196 C 23.53414891420337 107.19727757428625 30.96134791406176 C 0.0 **** -0.24
6197 H 23.796675987643823 106.22857573258192 31.384673945912745 H 0.0 **** 0.06
6198 H 24.34884298377051 107.901550321071 31.133345773434435 H 0.0 **** 0.06
6199 H 22.626752440365436 107.56875466345376 31.43803666793829 H 0.0 **** 0.06
6200 H 23.363837650760587 107.09153926361681 29.890359039330775 H 0.0 **** 0.06
6201 C 61.362925368226726 94.6373259884721 14.06532144677891 C 0.0 **** -0.24
6202 H 61.93859583456913 94.95941640948797 13.19848701729785 H 0.0 **** 0.06
6203 H 61.91426530870001 93.86427510744143 14.600724420305212 H 0.0 **** 0.06
6204 H 60.404128718192894 94.23731159327478 13.735019744773268 H 0.0 **** 0.06
6205 H 61.194241022184215 95.48752979857431 14.725966424726195 H 0.0 **** 0.06
6206 C 6.552592463270656 32.58553776949847 68.77292199120983 C 0.0 **** -0.24
6207 H 6.1386285852491795 32.38622354511887 69.76130930110921 H 0.0 **** 0.06
6208 H 5.984083200520644 33.384310669151375 68.29554597973977 H 0.0 **** 0.06
6209 H 6.492445580764098 31.68210267976403 68.16546075038391 H 0.0 **** 0.06
6210 H 7.595484275909939 32.88891794851864 68.8706252230369 H 0.0 **** 0.06
6211 C 55.92645046646928 72.9141100251349 1.6441811320505053 C 0.0 **** -0.24
6212 H 55.27778387919458 72.06862779158917 1.8754909543383746 H 0.0 **** 0.06
6213 H 56.61446689229611 72.63587596959184 0.8457213955684324 H 0.0 **** 0.06
6214 H 56.494154088381535 73.18910291527692 2.533823927607216 H 0.0 **** 0.06
6215 H 55.320020637889534 73.76035642170609 1.3238039291978225 H 0.0 **** 0.06
6216 C 74.96057316894633 76.28323759617346 16.825581674104097 C 0.0 **** -0.24
6217 H 74.90745854878168 77.31037880754569 17.18511115897556 H 0.0 **** 0.06
6218 H 73.99043913525026 75.98855085799511 16.424515030503233 H 0.0 **** 0.06
6219 H 75.22938992382535 75.62279964149852 17.64939229672231 H 0.0 **** 0.06
6220 H 75.71456608595457 76.21215451109164 16.041594676453002 H 0.0 **** 0.06
6221 C 90.75912825982391 35.19506036862879 6.451578761220603 C 0.0 **** -0.24
6222 H 90.2485166640866 35.533808937592 7.352439395791762 H 0.0 **** 0.06
6223 H 90.33292121578864 34.24598503128814 6.127649366990482 H 0.0 **** 0.06
6224 H 91.82029046170018 35.06318807579082 6.6642480836374745 H 0.0 **** 0.06
6225 H 90.636790143305 35.937602754004814 5.662905866461443 H 0.0 **** 0.06
6226 C 35.3109350160324 103.85949141988861 55.526493234737295 C 0.0 **** -0.24
6227 H 35.93351622309481 104.75318456313761 55.5602260738159 H 0.0 **** 0.06
6228 H 35.85932919665626 103.0184678905627 55.950357550547366 H 0.0 **** 0.06
6229 H 35.048667002931026 103.63823820215767 54.49203288178887 H 0.0 **** 0.06
6230 H 34.401392833458004 104.02909006392031 56.10387882108084 H 0.0 **** 0.06
6231 C 46.53194971213071 107.44176694757745 27.561862025934694 C 0.0 **** -0.24
6232 H 45.56873545519019 107.94654355306001 27.63431609347409 H 0.0 **** 0.06
6233 H 47.33273299257286 108.17902018221447 27.61066254918717 H 0.0 **** 0.06
6234 H 46.589954982223446 106.90377129178664 26.615016813677705 H 0.0 **** 0.06
6235 H 46.6352158540127 106.73693120995928 28.38733852906735 H 0.0 **** 0.06
6236 C 41.531217843791865 21.87557262930705 93.62492335528759 C 0.0 **** -0.24
6237 H 41.80806428412154 22.594772998006203 92.85444260839836 H 0.0 **** 0.06
6238 H 42.37749656924095 21.717474669306124 94.29448974932865 H 0.0 **** 0.06
6239 H 41.25533888791419 20.93009561758381 93.15707958373895 H 0.0 **** 0.06
6240 H 40.68397163389106 22.25994723233203 94.19368147968453 H 0.0 **** 0.06
6241 C 83.70113731667973 70.22675827502451 53.32193718070221 C 0.0 **** -0.24
6242 H 83.01141988439264 70.73846514109778 53.992319624902905 H 0.0 **** 0.06
6243 H 84.06661977351769 69.31871447498372 53.80103084594032 H 0.0 **** 0.06
6244 H 84.54205754630058 70.88354739314303 53.09608097583637 H 0.0 **** 0.06
6245 H 83.18399533513463 69.9682853578218 52.397382314183744 H 0.0 **** 0.06
6246 C 24.26690466375274 86.3108708494508 49.52132046388306 C 0.0 **** -0.24
6247 H 25.06939379758495 85.58109200492311 49.41137598853561 H 0.0 **** 0.06
6248 H 23.356237878680787 85.9213481501776 49.06651963472524 H 0.0 **** 0.06
6249 H 24.55099677735913 87.24086814933457 49.02853913125824 H 0.0 **** 0.06
6250 H 24.0922234566236 86.50027768547808 50.58070957457443 H 0.0 **** 0.06
6251 C 42.27549165508216 2.884417885104085 56.02324537815961 C 0.0 **** -0.24
6252 H 42.78983011591432 2.0153207985699453 56.43448372550485 H 0.0 **** 0.06
6253 H 41.47857769120778 3.1887338739438746 56.70135275542252 H 0.0 **** 0.06
6254 H 41.85030745836018 2.6278431369750024 55.05286012622719 H 0.0 **** 0.06
6255 H 42.9848306657912 3.703091358810724 55.903727088721354 H 0.0 **** 0.06
6256 C 105.23579335016964 89.03004972867853 102.82633673659382 C 0.0 **** -0.24
6257 H 105.30708737740665 90.1130835478047 102.73264801929349 H 0.0 **** 0.06
6258 H 106.20780032402973 88.62391930833644 103.10603165878285 H 0.0 **** 0.06
6259 H 104.92306732874238 88.60224884167303 101.87451033323589 H 0.0 **** 0.06
6260 H 104.50355604242536 88.78010385586848 103.59524336684615 H 0.0 **** 0.06
6261 C 34.97107814981203 11.567206154351283 60.98921422485898 C 0.0 **** -0.24
6262 H 34.71794290581872 12.607684003512048 60.786633115818645 H 0.0 **** 0.06
6263 H 34.822956571448174 10.97453490260996 60.08637784558802 H 0.0 **** 0.06
6264 H 34.32860782308944 11.186108963773577 61.784212111046585 H 0.0 **** 0.06
6265 H 36.01322026896548 11.50127410984625 61.30133196996704 H 0.0 **** 0.06
6266 C 56.46454561593297 19.792103474411565 5.790778459979039 C 0.0 **** -0.24
6267 H 56.87681851475019 20.728358990519197 6.167842683056197 H 0.0 **** 0.06
6268 H 56.64867032173702 19.72050401867988 4.718369306684583 H 0.0 **** 0.06
6269 H 55.39115673014643 19.767025752406425 5.97906586439785 H 0.0 **** 0.06
6270 H 56.942607791873854 18.954260011649215 6.298754485853779 H 0.0 **** 0.06
6271 C 27.936318344415383 92.22108077917261 36.67935507302127 C 0.0 **** -0.24
6272 H 27.29474562002676 91.79621397732194 35.907634689376096 H 0.0 **** 0.06
6273 H 27.481228743291638 93.13176997235996 37.06991803248508 H 0.0 **** 0.06
6274 H 28.911328564478453 92.45508633887681 36.2535075268616 H 0.0 **** 0.06
6275 H 28.05700278636988 91.50020609478321 37.48808289798262 H 0.0 **** 0.06
6276 C 11.570614279472693 56.714941956380244 52.89382138393444 C 0.0 **** -0.24
6277 H 10.617630662661895 56.25885545003024 52.62552293009719 H 0.0 **** 0.06
6278 H 11.767515510996873 56.54724206266803 53.95241070581636 H 0.0 **** 0.06
6279 H 11.52760845036994 57.78677568665756 52.69798284915237 H 0.0 **** 0.06
6280 H 12.367146705902655 56.26856778885849 52.30018696098648 H 0.0 **** 0.06
6281 C 43.73581354021604 17.391025256898217 67.77576888954042 C 0.0 **** -0.24
6282 H 43.4190266198965 18.08233399333534 68.55668566444774 H 0.0 **** 0.06
6283 H 43.59784042926958 16.36548018565304 68.1207189484 H 0.0 **** 0.06
6284 H 44.78797705930003 17.559065040489855 67.54675519250247 H 0.0 **** 0.06
6285 H 43.136672935852346 17.556328742218767 66.88000438075454 H 0.0 **** 0.06
6286 C 36.796949373292534 46.360511904145824 32.12309434709943 C 0.0 **** -0.24
6287 H 37.854718313115825 46.44118197786946 32.3751002607494 H 0.0 **** 0.06
6288 H 36.677029941132105 46.40046930162157 31.040249718613346 H 0.0 **** 0.06
6289 H 36.251320739864695 47.1853817520626 32.58109090720183 H 0.0 **** 0.06
6290 H 36.40635163114297 45.41379895072265 32.497310538634125 H 0.0 **** 0.06
6291 C 94.93278320399054 64.34313755911549 70.74737868646861 C 0.0 **** -0.24
6292 H 95.35255382773767 64.28957299665802 71.751820913154 H 0.0 **** 0.06
6293 H 94.13208487160831 63.608895342923745 70.64940232678939 H 0.0 **** 0.06
6294 H 95.71283227635408 64.12988648507911 70.01710948074074 H 0.0 **** 0.06
6295 H 94.53392286126247 65.34191047526514 70.57202537252547 H 0.0 **** 0.06
6296 C 88.50195809887782 9.890038767270482 35.741475086684574 C 0.0 **** -0.24
6297 H 87.95159034785468 10.07919482065003 36.6629353632878 H 0.0 **** 0.06
6298 H 89.31034071542001 9.186667819221185 35.93994564223229 H 0.0 **** 0.06
6299 H 88.91767934384924 10.826117235200172 35.36860690635544 H 0.0 **** 0.06
6300 H 87.82759659025811 9.469391814730642 34.9947713384139 H 0.0 **** 0.06
6301 C 8.164225789094615 107.40226173732651 51.153350094898414 C 0.0 **** -0.24
6302 H 7.893175419935602 107.25695754783538 50.1084735311347 H 0.0 **** 0.06
6303 H 9.243019366365687 107.29586272069014 51.26740446701035 H 0.0 **** 0.06
6304 H 7.657573768455322 106.6570085296973 51.76788829664294 H 0.0 **** 0.06
6305 H 7.862236692367162 108.40073017750882 51.471339322831234 H 0.0 **** 0.06
6306 C 6.6577967159452385 34.46989455209879 18.558646068443835 C 0.0 **** -0.24
6307 H 7.03718946007767 34.7741594429601 19.53491233824579 H 0.0 **** 0.06
6308 H 5.6153139075276925 34.77363986109373 18.464507326656744 H 0.0 **** 0.06
6309 H 6.732251956293226 33.387491364239054 18.4618503670971 H 0.0 **** 0.06
6310 H 7.247777955101668 34.94629034951578 17.775096479977208 H 0.0 **** 0.06
6311 C 30.694148916658463 20.183406010831987 2.812066444015244 C 0.0 **** -0.24
6312 H 30.64084725842349 20.209286211842766 1.7236442447791234 H 0.0 **** 0.06
6313 H 31.11381457654869 21.120863346850697 3.1761765642228994 H 0.0 **** 0.06
6314 H 31.329019157417747 19.35440622039414 3.1244025517235343 H 0.0 **** 0.06
6315 H 29.693041328102083 20.048855665748306 3.2208897555920544 H 0.0 **** 0.06
6316 C 75.25782618682689 27.199659133986756 109.07323750380178 C 0.0 **** -0.24
6317 H 75.45412606800721 26.94756808623535 110.11543575750906 H 0.0 **** 0.06
6318 H 75.96160757632549 26.66851479103451 108.43164088355857 H 0.0 **** 0.06
6319 H 75.37694483523399 28.274699622190695 108.93118987986351 H 0.0 **** 0.06
6320 H 74.23931094986699 26.90995376544629 108.81503363720131 H 0.0 **** 0.06
6321 C 89.22490246021735 26.88584190779146 76.17718508629532 C 0.0 **** -0.24
6322 H 89.53020076591304 26.12552312866677 75.4583067730964 H 0.0 **** 0.06
6323 H 90.10459200346799 27.271363022938417 76.69327475444166 H 0.0 **** 0.06
6324 H 88.54140386610186 26.444587500970187 76.90321883017165 H 0.0 **** 0.06
6325 H 88.72350238091934 27.699802982448603 75.65315256493759 H 0.0 **** 0.06
6326 C 47.51582096163175 96.74328674182775 6.7987645056064 C 0.0 **** -0.24
6327 H 48.344829797383724 97.37558562305576 7.117523403670958 H 0.0 **** 0.06
6328 H 46.78686030984133 96.66558844187473 7.60638889435964 H 0.0 **** 0.06
6329 H 47.89150918702902 95.75013032317491 6.551452060632229 H 0.0 **** 0.06
6330 H 47.04151768877891 97.18092229585753 5.921142611554259 H 0.0 **** 0.06
6331 C 107.29662338777773 87.30813859479328 39.489897607095685 C 0.0 **** -0.24
6332 H 106.73184359673407 88.07198325048707 40.0234927850444 H 0.0 **** 0.06
6333 H 108.32619441988759 87.64126735240916 39.36128025260092 H 0.0 **** 0.06
6334 H 106.84455112646421 87.13889289147716 38.512632908002644 H 0.0 **** 0.06
6335 H 107.28291974558866 86.3805854404014 40.06217995445516 H 0.0 **** 0.06
6336 C 26.382063428288518 79.06059803856031 107.6583746417979 C 0.0 **** -0.24
6337 H 27.134500296875842 79.27395972930083 106.89846850828631 H 0.0 **** 0.06
6338 H 26.53702446606985 78.0547234794953 108.0485440617559 H 0.0 **** 0.06
6339 H 25.388325547846932 79.12965490714903 107.21470138668057 H 0.0 **** 0.06
6340 H 26.46982872988272 79.78353257522522 108.46836449035277 H 0.0 **** 0.06
6341 C 96.13434533620206 10.26123899546297 44.701160943851875 C 0.0 **** -0.24
6342 H 96.03025911070785 9.78326606594117 43.727045102344015 H 0.0 **** 0.06
6343 H 97.05015305550046 9.912672908580234 45.180029096098146 H 0.0 **** 0.06
6344 H 95.27815853024921 10.005078731083392 45.324576346888236 H 0.0 **** 0.06
6345 H 96.18054217618392 11.342578935097233 44.57191884436162 H 0.0 **** 0.06
6346 C 107.12088275203917 15.401406964435637 92.57243579388842 C 0.0 **** -0.24
6347 H 107.98198268248069 15.783693388339088 92.02348244789084 H 0.0 **** 0.06
6348 H 107.05331428308705 14.322038228121471 92.43547091559032 H 0.0 **** 0.06
6349 H 106.21293352955234 15.873872368671698 92.19822547982903 H 0.0 **** 0.06
6350 H 107.23786211275092 15.627223151038777 93.63258278146347 H 0.0 **** 0.06
6351 C 54.06370596167458 85.22073551343749 28.769676750672375 C 0.0 **** -0.24
6352 H 54.059401284852555 84.71481018292702 27.80419150303237 H 0.0 **** 0.06
6353 H 53.6474259562064 86.22229576057819 28.65695225789628 H 0.0 **** 0.06
6354 H 55.08725368135594 85.29054398150758 29.138318298864505 H 0.0 **** 0.06
6355 H 53.45993615282904 84.65380786237222 29.478174300898473 H 0.0 **** 0.06
6356 C 68.58504346319654 36.98263057695996 90.78605711259507 C 0.0 **** -0.24
6357 H 67.56799939053951 37.03363068142036 90.39679358274009 H 0.0 **** 0.06
6358 H 69.27568038211274 37.39975433189508 90.05325554026672 H 0.0 **** 0.06
6359 H 68.84670728523781 35.9423900780418 90.98273333919246 H 0.0 **** 0.06
6360 H 68.64753892131574 37.55460909328639 91.71240946522505 H 0.0 **** 0.06
6361 C 58.605800765163565 70.53758983060487 24.20220563462928 C 0.0 **** -0.24
6362 H 59.039277530622996 69.55431503739226 24.017559099369777 H 0.0 **** 0.06
6363 H 59.14275796150635 71.28504240477685 23.618040967608522 H 0.0 **** 0.06
6364 H 58.687430811723104 70.77688794382848 25.26219745086422 H 0.0 **** 0.06
6365 H 57.556036889084105 70.53236941002461 23.910208643537857 H 0.0 **** 0.06
6366 C 97.37901147416274 26.925020101677717 59.83039519262901 C 0.0 **** -0.24
6367 H 97.55354248624215 27.227119378121273 60.86367480125257 H 0.0 **** 0.06
6368 H 96.67110714955747 27.61227478469418 59.36702039536581 H 0.0 **** 0.06
6369 H 96.97221955523251 25.91406663868335 59.810923386406614 H 0.0 **** 0.06
6370 H 98.32116012529262 26.948406676473354 59.28133071779813 H 0.0 **** 0.06
6371 C 29.25214263860711 69.8249028047768 3.8831770076228374 C 0.0 **** -0.24
6372 H 28.93660410125071 70.86088638172309 3.763005673460862 H 0.0 **** 0.06
6373 H 29.873813015829626 69.73514094511566 4.774364145522519 H 0.0 **** 0.06
6374 H 29.824043386225682 69.51550588315108 3.0077023538627987 H 0.0 **** 0.06
6375 H 28.37416711161123 69.18744410257136 3.9868645231722226 H 0.0 **** 0.06
6376 C 108.29445045102901 74.595905772601 85.58051222111004 C 0.0 **** -0.24
6377 H 109.00426706333214 73.9411701070483 85.07401112026021 H 0.0 **** 0.06
6378 H 108.82637489130133 75.21604164053403 86.3020201047008 H 0.0 **** 0.06
6379 H 107.5496344074583 73.99273957162426 86.097809262657 H 0.0 **** 0.06
6380 H 107.80069651868556 75.2336113331668 84.84681511889484 H 0.0 **** 0.06
6381 C 10.120424115388218 94.59955566956876 89.84217844883582 C 0.0 **** -0.24
6382 H 9.476786626604198 94.00143733381655 90.4872009054634 H 0.0 **** 0.06
6383 H 10.690756416747025 93.94067528262575 89.18704299813709 H 0.0 **** 0.06
6384 H 10.806820900527885 95.18424071818315 90.45485421336795 H 0.0 **** 0.06
6385 H 9.508356721386878 95.27092842871635 89.23987216696582 H 0.0 **** 0.06
6386 C 2.579118381338276 15.238967133814072 41.28334541545041 C 0.0 **** -0.24
6387 H 2.258250517584713 14.868531230138899 42.25650611272965 H 0.0 **** 0.06
6388 H 2.4889822139536477 16.325447586871462 41.26066332296432 H 0.0 **** 0.06
6389 H 1.9508321859522084 14.805678344135647 40.50495346598194 H 0.0 **** 0.06
6390 H 3.617726787745312 14.955547346944648 41.11095177555234 H 0.0 **** 0.06
6391 C 16.446982888776404 51.16026714152244 14.719206035468034 C 0.0 **** -0.24
6392 H 16.814035268634413 51.43905126996131 13.731823305588108 H 0.0 **** 0.06
6393 H 17.29035931893182 50.895120364848765 15.358804538349005 H 0.0 **** 0.06
6394 H 15.776076404369064 50.30575935795423 14.6298434149368 H 0.0 **** 0.06
6395 H 15.908504163072791 52.0003831421173 15.157511280006418 H 0.0 **** 0.06
6396 C 79.05929202319709 24.12382188698814 94.12186584754909 C 0.0 **** -0.24
6397 H 80.00661973685527 24.194164922602397 93.58776494987694 H 0.0 **** 0.06
6398 H 78.25196790788249 23.956995889554605 93.40908918643174 H 0.0 **** 0.06
6399 H 78.87863231254994 25.051780257041685 94.6645186554515 H 0.0 **** 0.06
6400 H 79.09991313848599 23.29322578405413 94.82656562230454 H 0.0 **** 0.06
6401 C 38.77969177183334 30.117180042278967 43.24097307010871 C 0.0 **** -0.24
6402 H 39.475155409869586 30.553679959347598 43.95818427125451 H 0.0 **** 0.06
6403 H 39.337750441857196 29.696094719240804 42.40430919745336 H 0.0 **** 0.06
6404 H 38.10172879862981 30.888864183706602 42.87557663898386 H 0.0 **** 0.06
6405 H 38.20425656185428 29.329475148702677 43.72743998490222 H 0.0 **** 0.06
6406 C 71.11949162710235 92.49506686472495 72.21063190893682 C 0.0 **** -0.24
6407 H 70.65571777397327 92.03893192657968 73.08538300200088 H 0.0 **** 0.06
6408 H 70.87600731794981 93.55755193374033 72.18427590640053 H 0.0 **** 0.06
6409 H 70.74536864795087 92.01313861032693 71.3083504689258 H 0.0 **** 0.06
6410 H 72.20108254457409 92.3719316649836 72.26739939704574 H 0.0 **** 0.06
6411 C 48.23786949530364 42.86828883616141 25.418589777800634 C 0.0 **** -0.24
6412 H 48.006727284083354 41.939318818354394 25.94037397127552 H 0.0 **** 0.06
6413 H 47.937017488964784 42.7830015505549 24.374319271541935 H 0.0 **** 0.06
6414 H 49.31044377755626 43.0579175253844 25.473454753188662 H 0.0 **** 0.06
6415 H 47.69952359988167 43.691451337346194 25.887574732744653 H 0.0 **** 0.06
6416 C 11.010013137784398 109.3756657904595 25.583806117675465 C 0.0 **** -0.24
6417 H 10.777329128099751 110.01736451870579 26.433788846928735 H 0.0 **** 0.06
6418 H 12.03286467720784 109.56348929801575 25.256583236468714 H 0.0 **** 0.06
6419 H 10.321486639091006 109.59047600700097 24.766705419263076 H 0.0 **** 0.06
6420 H 10.908120498643427 108.33101885049211 25.879502656595434 H 0.0 **** 0.06
6421 C 79.25926392078819 79.07581037940008 78.16872957305469 C 0.0 **** -0.24
6422 H 79.88820174046994 79.88885653721229 78.53171567369657 H 0.0 **** 0.06
6423 H 79.5114729194979 78.15698384459094 78.69802169147115 H 0.0 **** 0.06
6424 H 79.42636170164627 78.93653906809851 77.10015967902825 H 0.0 **** 0.06
6425 H 78.21169997458185 79.32109258049093 78.34315476030548 H 0.0 **** 0.06
6426 C 9.128303937757687 1.9741426347599713 20.852552912930207 C 0.0 **** -0.24
6427 H 10.108308062924554 2.4416574210774087 20.759910893438644 H 0.0 **** 0.06
6428 H 8.559619916224232 2.1372812854271217 19.93586261166905 H 0.0 **** 0.06
6429 H 8.594834678710834 2.4147972689348762 21.69450704006698 H 0.0 **** 0.06
6430 H 9.250513386925633 0.9038613014297994 21.018960398223783 H 0.0 **** 0.06
6431 C 8.604807870966638 58.29556476028705 93.03077850934781 C 0.0 **** -0.24
6432 H 8.12500473907879 58.07353477176139 92.07836720384321 H 0.0 **** 0.06
6433 H 7.849764759943838 58.33508396958666 93.81684589662513 H 0.0 **** 0.06
6434 H 9.113360400948935 59.25720438164757 92.96590733986869 H 0.0 **** 0.06
6435 H 9.329984748099903 57.515874973403584 93.26410032922968 H 0.0 **** 0.06
6436 C 104.53664074129074 42.240276324464446 85.74661881154964 C 0.0 **** -0.24
6437 H 103.66122847709823 42.88667006070008 85.7926964237895 H 0.0 **** 0.06
6438 H 104.21749290365749 41.203742175845164 85.63514066307806 H 0.0 **** 0.06
6439 H 105.11485148667738 42.345413601503125 86.66502136816445 H 0.0 **** 0.06
6440 H 105.15349721442459 42.52399068474135 84.89465700379577 H 0.0 **** 0.06
6441 C 60.44782672438578 20.15349629499906 74.24279648868122 C 0.0 **** -0.24
6442 H 60.488264512998 19.272311589053466 74.88340873592483 H 0.0 **** 0.06
6443 H 61.14159121932812 20.027807076838773 73.4103045183233 H 0.0 **** 0.06
6444 H 60.726954148568836 21.03538180968247 74.81978485453538 H 0.0 **** 0.06
6445 H 59.43570097465323 20.275562094868306 73.8575911955447 H 0.0 **** 0.06
6446 C 26.851001908802345 3.7143158767524014 0.6405832480983236 C 0.0 **** -0.24
6447 H 27.617086813877194 4.174963093802127 1.263860685507865 H 0.0 **** 0.06
6448 H 26.609682659001322 4.378939859832746 -0.18942925283162992 H 0.0 **** 0.06
6449 H 25.954995765882728 3.537772362079071 1.2373530638008958 H 0.0 **** 0.06
6450 H 27.220083792855178 2.7663144002500246 0.2514503566304285 H 0.0 **** 0.06
6451 C 28.39964425124799 52.630934729403876 18.07351565093785 C 0.0 **** -0.24
6452 H 29.407619494685548 53.01952797777092 18.217091080960188 H 0.0 **** 0.06
6453 H 27.90154114405769 53.195865344379605 17.285940005169522 H 0.0 **** 0.06
6454 H 27.83759817104442 52.72702245738914 19.00208392904156 H 0.0 **** 0.06
6455 H 28.453078293637475 51.579391420710984 17.78812240882644 H 0.0 **** 0.06
6456 C 59.30164257116951 6.861078507939851 6.466922065979336 C 0.0 **** -0.24
6457 H 58.54481682071486 6.155617203120471 6.124692849734535 H 0.0 **** 0.06
6458 H 59.89172294852182 7.201616483885971 5.615876953255892 H 0.0 **** 0.06
6459 H 59.95344714965074 6.370588665191548 7.190261726808496 H 0.0 **** 0.06
6460 H 58.81472878096213 7.715375007588477 6.938002971651841 H 0.0 **** 0.06
6461 C 51.321517192790395 29.071830464886517 58.50737396306698 C 0.0 **** -0.24
6462 H 51.6618564532929 29.916179756471024 57.90784314823645 H 0.0 **** 0.06
6463 H 50.922920586315115 29.43623931586356 59.454007815537665 H 0.0 **** 0.06
6464 H 52.15855722156823 28.401565602787002 58.70012946495882 H 0.0 **** 0.06
6465 H 50.542154600353626 28.53404041716871 57.96710406140221 H 0.0 **** 0.06
6466 C 97.60789147392933 18.81043394391858 15.043561066801118 C 0.0 **** -0.24
6467 H 97.85809451181436 17.804067629115043 14.708237346080438 H 0.0 **** 0.06
6468 H 96.71918689833956 19.15825002213835 14.515632137743864 H 0.0 **** 0.06
6469 H 98.44097408482406 19.48016445999364 14.83406632187777 H 0.0 **** 0.06
6470 H 97.41191501131291 18.797322144118443 16.115740641715746 H 0.0 **** 0.06
6471 C 73.36495003347318 86.30729930770842 29.757222256260377 C 0.0 **** -0.24
6472 H 73.44540990903425 85.367678704768 30.304652717515296 H 0.0 **** 0.06
6473 H 73.62154432452559 87.13576345487951 30.418236862969508 H 0.0 **** 0.06
6474 H 72.3436882758198 86.43133681959922 29.398285208517365 H 0.0 **** 0.06
6475 H 74.0496858928856 86.2925743102601 28.90923775649327 H 0.0 **** 0.06
6476 C 7.146145805548173 18.839145402164803 71.48331668917042 C 0.0 **** -0.24
6477 H 6.170498760451238 19.312191970903882 71.37063336381347 H 0.0 **** 0.06
6478 H 7.241853766667788 18.027115174977382 70.7624258272194 H 0.0 **** 0.06
6479 H 7.241287054703861 18.442000641664606 72.4942523681805 H 0.0 **** 0.06
6480 H 7.930312828972944 19.576396588173253 71.3071134815197 H 0.0 **** 0.06
6481 C 5.74175857924584 27.969158806801545 89.1819208166702 C 0.0 **** -0.24
6482 H 4.957490250049659 28.51720728074389 88.65913135426484 H 0.0 **** 0.06
6483 H 6.381753718971595 27.469844025594227 88.454651479722 H 0.0 **** 0.06
6484 H 5.289750174176476 27.227534350455073 89.83979105422917 H 0.0 **** 0.06
6485 H 6.337766852361028 28.665010564403246 89.77371155628698 H 0.0 **** 0.06
6486 C 8.417324251603361 76.60362277496316 71.91689603050582 C 0.0 **** -0.24
6487 H 7.532281224826448 76.43694553829636 72.53084901502751 H 0.0 **** 0.06
6488 H 9.075146788634584 77.31768940232706 72.41496351937946 H 0.0 **** 0.06
6489 H 8.11846340755227 76.99948534204003 70.94678690926861 H 0.0 **** 0.06
6490 H 8.945746719302463 75.66005674936883 71.77788660138964 H 0.0 **** 0.06
6491 C 100.617019807431 61.004102454210795 24.431695026162686 C 0.0 **** -0.24
6492 H 101.02946994385599 61.78188830185488 25.074191547668647 H 0.0 **** 0.06
6493 H 99.57007936863278 61.2260713982414 24.219819248796313 H 0.0 **** 0.06
6494 H 100.68900150859713 60.04003844527102 24.935434011927043 H 0.0 **** 0.06
6495 H 101.17782451357806 60.96983912592407 23.49757894931048 H 0.0 **** 0.06
6496 C 82.67097317849584 100.00780346411749 53.87760180938426 C 0.0 **** -0.24
6497 H 82.73744564949106 99.14691164137612 54.54161862387684 H 0.0 **** 0.06
6498 H 83.20284221728696 100.85032594701255 54.31961190331435 H 0.0 **** 0.06
6499 H 81.62435521008388 100.27502857522474 53.732676705079825 H 0.0 **** 0.06
6500 H 83.11835128016776 99.75949816617054 52.91555658888413 H 0.0 **** 0.06
6501 C 95.72555305871084 101.24735444050145 67.28384207484163 C 0.0 **** -0.24
6502 H 96.40719182841694 101.46272145419886 68.1063062604519 H 0.0 **** 0.06
6503 H 94.97610574592704 102.03625011106914 67.21654347945298 H 0.0 **** 0.06
6504 H 95.23140833650122 100.292112969534 67.4630946685296 H 0.0 **** 0.06
6505 H 96.28660189488386 101.19657572099368 66.35087077778479 H 0.0 **** 0.06
6506 C 81.82747969096215 110.5793686384369 60.273896891004 C 0.0 **** -0.24
6507 H 81.84076562580117 109.51113441987783 60.0558787570497 H 0.0 **** 0.06
6508 H 82.2983113683024 110.75713371656394 61.24166748825087 H 0.0 **** 0.06
6509 H 80.79726519380677 110.93219915767764 60.29999988695039 H 0.0 **** 0.06
6510 H 82.37606771794316 111.11435331488912 59.49890831856169 H 0.0 **** 0.06
6511 C 35.37800932091443 10.203470869530873 37.045599136882515 C 0.0 **** -0.24
6512 H 34.53487377777299 9.805536202991687 36.479741155300076 H 0.0 **** 0.06
6513 H 35.00741400731562 10.748593886176813 37.91344343137473 H 0.0 **** 0.06
6514 H 35.955328625775564 10.876066907974657 36.41187863068649 H 0.0 **** 0.06
6515 H 36.01243876798367 9.381184910460572 37.3764311336779 H 0.0 **** 0.06
6516 C 28.177366794080626 101.9233494857546 44.50500304801744 C 0.0 **** -0.24
6517 H 28.97943633040029 101.34533116922832 44.963158019011644 H 0.0 **** 0.06
6518 H 27.465895119425625 101.24439431530388 44.03220097975793 H 0.0 **** 0.06
6519 H 28.5947841391274 102.59279488502601 43.753990888113435 H 0.0 **** 0.06
6520 H 27.667704632392002 102.50837116596959 45.27073920312324 H 0.0 **** 0.06
6521 C 58.54944792279018 83.60099172930873 102.43057985886452 C 0.0 **** -0.24
6522 H 59.52846685544732 83.18827222879077 102.67202804256357 H 0.0 **** 0.06
6523 H 58.276741279909 83.31567113214004 101.41445192149263 H 0.0 **** 0.06
6524 H 58.585421069696636 84.68793319750449 102.5052653314938 H 0.0 **** 0.06
6525 H 57.80892404767543 83.21259729539631 103.1289492652071 H 0.0 **** 0.06
6526 C 93.63979497263949 105.33356474445935 74.49518322514251 C 0.0 **** -0.24
6527 H 93.52814120903312 105.91157827040496 75.41316502818205 H 0.0 **** 0.06
6528 H 93.7610516915002 106.01336681373857 73.65133328145848 H 0.0 **** 0.06
6529 H 92.75196327002098 104.71974771463181 74.34332720054404 H 0.0 **** 0.06
6530 H 94.5175340692427 104.6921327358337 74.57518195227745 H 0.0 **** 0.06
6531 C 78.46234771308514 100.09927430137463 18.46614433775831 C 0.0 **** -0.24
6532 H 77.39453602305485 100.31875874946947 18.469954706438006 H 0.0 **** 0.06
6533 H 78.6148044993397 99.03563183562787 18.65358885268803 H 0.0 **** 0.06
6534 H 78.95437711463393 100.68012221445088 19.246595826170388 H 0.0 **** 0.06
6535 H 78.88299200328646 100.36220085413395 17.49635226538163 H 0.0 **** 0.06
6536 C 26.419789081466895 59.16987960252189 37.1263208873124 C 0.0 **** -0.24
6537 H 27.11852169213479 58.34523819797046 36.97654720904305 H 0.0 **** 0.06
6538 H 25.701599677980344 59.190278490076054 36.306789567057024 H 0.0 **** 0.06
6539 H 26.96972437579207 60.11075369338015 37.153020386016806 H 0.0 **** 0.06
6540 H 25.891850642599014 59.030519214413516 38.06924632224903 H 0.0 **** 0.06
6541 C 6.458236294349504 85.1735181824817 11.93546391920573 C 0.0 **** -0.24
6542 H 6.38906544649177 84.12648163889367 11.639356447965966 H 0.0 **** 0.06
6543 H 7.42618913841072 85.57268208731358 11.632727745207148 H 0.0 **** 0.06
6544 H 6.355015655228442 85.25192094482958 13.018267362465267 H 0.0 **** 0.06
6545 H 5.663198733340607 85.74082009782751 11.45166485043653 H 0.0 **** 0.06
6546 C 106.01754780909229 5.695047862372306 11.02609637016215 C 0.0 **** -0.24
6547 H 107.02775130619887 5.561216547979143 10.638745336063153 H 0.0 **** 0.06
6548 H 105.35701074991799 4.950586006782544 10.581565074598373 H 0.0 **** 0.06
6549 H 105.66194236004219 6.694484557474993 10.7740332288745 H 0.0 **** 0.06
6550 H 106.02565293097842 5.574382974806838 12.109760555456674 H 0.0 **** 0.06
6551 C 23.8692146916903 39.26291970328509 50.4651159421374 C 0.0 **** -0.24
6552 H 23.653060141329696 38.44127663653012 51.14697263157518 H 0.0 **** 0.06
6553 H 22.934347227569383 39.677659367062915 50.08653222828053 H 0.0 **** 0.06
6554 H 24.466746808358348 38.89455694457712 49.63131862153091 H 0.0 **** 0.06
6555 H 24.42284675155667 40.03923582550817 50.99367111875807 H 0.0 **** 0.06
6556 C 83.0263532619916 5.780310825800564 45.448486417651296 C 0.0 **** -0.24
6557 H 82.80874025015021 4.760341399008626 45.76792461086626 H 0.0 **** 0.06
6558 H 82.73613856837102 5.903503183385983 44.404556888858586 H 0.0 **** 0.06
6559 H 84.09356904359169 5.974576428022775 45.55543072207185 H 0.0 **** 0.06
6560 H 82.46491617367923 6.481246283582559 46.06718155434612 H 0.0 **** 0.06
6561 C 102.86696938236081 50.82992886908791 103.7149946168466 C 0.0 **** -0.24
6562 H 102.24631545823337 51.60522306892282 104.16535935030598 H 0.0 **** 0.06
6563 H 103.711824086241 50.616278271005946 104.3687748706921 H 0.0 **** 0.06
6564 H 103.23378537757469 51.17637738671814 102.74888531956832 H 0.0 **** 0.06
6565 H 102.27485514124552 49.925752416676275 103.57627776976221 H 0.0 **** 0.06
6566 C 40.64419272124246 67.47734128405051 26.443016918243814 C 0.0 **** -0.24
6567 H 40.39772044210821 67.59935489582534 25.387713224401182 H 0.0 **** 0.06
6568 H 39.861707558589956 67.92832046623204 27.052976310175325 H 0.0 **** 0.06
6569 H 41.594989388439274 67.96698057724328 26.652596905333382 H 0.0 **** 0.06
6570 H 40.72185314668582 66.41552143312987 26.677335524286406 H 0.0 **** 0.06
6571 C 85.46738748615445 48.07984339357415 22.401483729430026 C 0.0 **** -0.24
6572 H 85.96924943865764 47.82494350224687 21.46754293516142 H 0.0 **** 0.06
6573 H 86.00508755801656 47.63068530446512 23.236799478919778 H 0.0 **** 0.06
6574 H 84.44586258927262 47.702033006060816 22.37969247311031 H 0.0 **** 0.06
6575 H 85.45245680630029 49.162990100174454 22.5195090708596 H 0.0 **** 0.06
6576 C 26.69428722499594 97.01448823153656 53.38230663219383 C 0.0 **** -0.24
6577 H 25.8850876648718 96.67346814975943 52.73713605834925 H 0.0 **** 0.06
6578 H 27.290705535069733 96.1587519898591 53.698182239821534 H 0.0 **** 0.06
6579 H 26.275214182784218 97.50934724437475 54.25830552682146 H 0.0 **** 0.06
6580 H 27.323885982591726 97.71576797873341 52.8348736767216 H 0.0 **** 0.06
6581 C 33.50646118759727 25.81735793687139 15.01546919740776 C 0.0 **** -0.24
6582 H 34.08325601179619 26.737853127782728 14.924529246458274 H 0.0 **** 0.06
6583 H 33.88898937785243 25.0778936999059 14.311487245205178 H 0.0 **** 0.06
6584 H 32.45879477493688 26.02223962645408 14.79671984503005 H 0.0 **** 0.06
6585 H 33.5957864392717 25.431739817296034 16.031959969191366 H 0.0 **** 0.06
6586 C 40.79245367995637 88.0503711880242 24.975344574644623 C 0.0 **** -0.24
6587 H 40.37660623482333 87.06296805636 24.776157067622307 H 0.0 **** 0.06
6588 H 40.495782335614564 88.37456523155328 25.973884595231425 H 0.0 **** 0.06
6589 H 40.41770690118972 88.75895799852628 24.236747043326375 H 0.0 **** 0.06
6590 H 41.88038780428434 88.00525401847142 24.915808298903215 H 0.0 **** 0.06
6591 C 64.41974726830998 45.1365589413202 50.486946036515434 C 0.0 **** -0.24
6592 H 64.03637618707532 44.88388794258748 51.47597270797735 H 0.0 **** 0.06
6593 H 64.26262737569101 44.29542811960789 49.81109320102354 H 0.0 **** 0.06
6594 H 65.48566769449413 45.352697537788885 50.55505958692163 H 0.0 **** 0.06
6595 H 63.89453454044299 46.011998655120834 50.1057550056949 H 0.0 **** 0.06
6596 C 76.1772663108897 50.641494410605524 73.29732841098877 C 0.0 **** -0.24
6597 H 75.62839053289531 51.56559245221093 73.47781914854627 H 0.0 **** 0.06
6598 H 77.14037800663041 50.873970935059035 72.84288780863935 H 0.0 **** 0.06
6599 H 75.6015273702242 50.004181519043016 72.62513665878595 H 0.0 **** 0.06
6600 H 76.335825239504 50.12250826908606 74.24296323137833 H 0.0 **** 0.06
6601 C 66.59117675110122 76.33801749507343 54.644124048734426 C 0.0 **** -0.24
6602 H 67.3551504384528 75.72428919235549 55.12099980662964 H 0.0 **** 0.06
6603 H 65.9049212573428 75.69728797323125 54.090026738569065 H 0.0 **** 0.06
6604 H 67.06585292043573 77.0413536731673 53.95935728043497 H 0.0 **** 0.06
6605 H 66.03976355329638 76.8881931952412 55.405734743620485 H 0.0 **** 0.06
6606 C 56.32706829114982 10.495889322773948 84.70867612146671 C 0.0 **** -0.24
6607 H 56.00475611213406 11.52478099547622 84.86744166287161 H 0.0 **** 0.06
6608 H 55.754892271616534 9.831124824116685 85.35574604849246 H 0.0 **** 0.06
6609 H 57.38776092071288 10.408341079300598 84.94461509118632 H 0.0 **** 0.06
6610 H 56.16275271706006 10.22050681087336 83.66686922920138 H 0.0 **** 0.06
6611 C 48.71028032637284 61.913655712158004 57.67885680230398 C 0.0 **** -0.24
6612 H 49.73528776718413 61.7041980290785 57.985640086596845 H 0.0 **** 0.06
6613 H 48.71712605103228 62.618842299963205 56.84726628817231 H 0.0 **** 0.06
6614 H 48.16142107318124 62.34406825927283 58.51579003366095 H 0.0 **** 0.06
6615 H 48.22840464447175 60.98772785717131 57.36589173120501 H 0.0 **** 0.06
6616 C 80.1750613043265 67.85932374780073 46.501824047926874 C 0.0 **** -0.24
6617 H 79.27583905511818 67.59071195965231 45.94750033219779 H 0.0 **** 0.06
6618 H 80.06705457698376 68.86701807630948 46.90306140789551 H 0.0 **** 0.06
6619 H 81.03683708384636 67.82310647750838 45.83536208436851 H 0.0 **** 0.06
6620 H 80.31924102293726 67.15537591243637 47.3218267414569 H 0.0 **** 0.06
6621 C 34.275093313172306 58.36238981117236 107.87351122483108 C 0.0 **** -0.24
6622 H 35.017874461479465 58.684388892676054 108.60444252646566 H 0.0 **** 0.06
6623 H 34.21745199665909 57.27417752176564 107.87016528652781 H 0.0 **** 0.06
6624 H 34.565260927355894 58.714691376220685 106.88347884475844 H 0.0 **** 0.06
6625 H 33.30293840259145 58.778140834753174 108.13678219727574 H 0.0 **** 0.06
6626 C 18.134925381817904 107.80155635206359 82.57942236186278 C 0.0 **** -0.24
6627 H 17.441695922150174 106.97959469774634 82.75942711558079 H 0.0 **** 0.06
6628 H 17.61036048872099 108.75078037943146 82.69407493613016 H 0.0 **** 0.06
6629 H 18.533327257559243 107.7259752867586 81.56790609675414 H 0.0 **** 0.06
6630 H 18.95352342437972 107.74965826592052 83.29684868887875 H 0.0 **** 0.06
6631 C 66.44969604641238 76.48728338772617 71.10807225486452 C 0.0 **** -0.24
6632 H 65.84175419601394 76.14453095882598 70.27178036320473 H 0.0 **** 0.06
6633 H 67.02430557279962 75.65055071129541 71.50718517984424 H 0.0 **** 0.06
6634 H 65.8019229333313 76.889030586628 71.88709144771408 H 0.0 **** 0.06
6635 H 67.1316512535202 77.26535142583987 70.76582098822396 H 0.0 **** 0.06
6636 C 109.34682410586151 49.01779107923423 10.607013439439925 C 0.0 **** -0.24
6637 H 109.96772480194936 48.169739849612824 10.320761633807422 H 0.0 **** 0.06
6638 H 108.37197549512936 48.933018298078 10.125512082512017 H 0.0 **** 0.06
6639 H 109.82825260018132 49.94356535688061 10.293821383229755 H 0.0 **** 0.06
6640 H 109.21817762414653 49.02435096437773 11.689508149253243 H 0.0 **** 0.06
6641 C 67.02403722716878 23.745209606092686 77.40013752228586 C 0.0 **** -0.24
6642 H 67.78532480997734 24.320756741311342 77.92782161487334 H 0.0 **** 0.06
6643 H 66.31121101331775 23.34075717260002 78.11886539723608 H 0.0 **** 0.06
6644 H 67.49825784707758 22.927769526572163 76.85683350022379 H 0.0 **** 0.06
6645 H 66.50256336736606 24.39420778485689 76.69631998278723 H 0.0 **** 0.06
6646 C 91.42366362161627 58.57487625174869 95.29298179264285 C 0.0 **** -0.24
6647 H 91.39101398954887 57.782611833602346 94.54554832402059 H 0.0 **** 0.06
6648 H 91.06224128052028 59.50438254687478 94.85351319049684 H 0.0 **** 0.06
6649 H 92.45106982394222 58.70999110921832 95.6340833998391 H 0.0 **** 0.06
6650 H 90.79329713816873 58.30208275634655 96.13873558995789 H 0.0 **** 0.06
6651 C 40.71834381319974 29.832483175755428 11.99089930490814 C 0.0 **** -0.24
6652 H 41.67453947317733 29.677170024731623 12.490343401270394 H 0.0 **** 0.06
6653 H 40.02205369481004 30.311639077783212 12.68030158512542 H 0.0 **** 0.06
6654 H 40.31334237330449 28.870789074136525 11.67528238497519 H 0.0 **** 0.06
6655 H 40.8626969083073 30.46996496745396 11.118228167069077 H 0.0 **** 0.06
6656 C 11.04999812684019 79.10401394926691 33.74112047246231 C 0.0 **** -0.24
6657 H 11.345931210841862 78.99908851132665 34.78495714454482 H 0.0 **** 0.06
6658 H 10.997740182105499 78.11836999418364 33.278095787744036 H 0.0 **** 0.06
6659 H 11.78383374257534 79.71436051149993 33.21565777456627 H 0.0 **** 0.06
6660 H 10.072604870202884 79.58430006882247 33.68800332099528 H 0.0 **** 0.06
6661 C 36.761605296905856 54.22680236097767 2.501930550479159 C 0.0 **** -0.24
6662 H 36.00069276107109 54.041233036102106 3.2597166998627074 H 0.0 **** 0.06
6663 H 36.54293302732725 55.16476256816941 1.9913251938750847 H 0.0 **** 0.06
6664 H 36.761171676099764 53.41056497104571 1.7787997737253107 H 0.0 **** 0.06
6665 H 37.74038460448119 54.29045886661164 2.977225870580355 H 0.0 **** 0.06
6666 C 75.3912441269635 109.67897961309002 74.18823772464596 C 0.0 **** -0.24
6667 H 76.25620495338296 110.29310476547568 73.94064385820784 H 0.0 **** 0.06
6668 H 74.50470443142251 110.08864322061858 73.7043505273652 H 0.0 **** 0.06
6669 H 75.24717387000055 109.6737297789925 75.26890139017196 H 0.0 **** 0.06
6670 H 75.5585284485606 108.65996450624338 73.83873962625638 H 0.0 **** 0.06
6671 C 15.270229662284976 0.8870794644574955 75.1423268128126 C 0.0 **** -0.24
6672 H 15.251373822913706 -0.17198935092598333 74.8849973774054 H 0.0 **** 0.06
6673 H 15.949359781740043 1.4118802689922125 74.47094682196905 H 0.0 **** 0.06
6674 H 15.613358638761383 1.0041092003839607 76.17034883896335 H 0.0 **** 0.06
6675 H 14.26698964777188 1.3019392642886949 75.04357680507405 H 0.0 **** 0.06
6676 C 20.686401674943085 37.39861006299566 41.625375352110154 C 0.0 **** -0.24
6677 H 20.03160078464171 38.19113226553077 41.26389913562764 H 0.0 **** 0.06
6678 H 21.677775834012834 37.80703001390356 41.82108979645912 H 0.0 **** 0.06
6679 H 20.75754123459194 36.61517431736121 40.8711331444928 H 0.0 **** 0.06
6680 H 20.2771178220234 36.980627468487796 42.544826811207585 H 0.0 **** 0.06
6681 C 61.955113589633484 77.7944716690202 5.270600246938175 C 0.0 **** -0.24
6682 H 62.630471823711204 78.64973670968456 5.262434764652841 H 0.0 **** 0.06
6683 H 61.74086333389275 77.48986953303282 4.245641635616142 H 0.0 **** 0.06
6684 H 61.026065554412526 78.07129940550132 5.7699818012639685 H 0.0 **** 0.06
6685 H 62.42202004461879 76.96802610828905 5.806027934700955 H 0.0 **** 0.06
6686 C 48.252437449290184 22.517918337156033 92.25331669339346 C 0.0 **** -0.24
6687 H 47.5656077942547 22.19296708873631 91.4720143026612 H 0.0 **** 0.06
6688 H 47.861722150828456 22.219664663025185 93.22651814478218 H 0.0 **** 0.06
6689 H 48.35415504660703 23.60233049916664 92.2191188418962 H 0.0 **** 0.06
6690 H 49.227418779958285 22.05619839401902 92.09546910783808 H 0.0 **** 0.06
6691 C 41.760067905758376 2.7721497991390436 87.7251902927159 C 0.0 **** -0.24
6692 H 41.345101181982415 1.7700183259042035 87.82884749414993 H 0.0 **** 0.06
6693 H 42.056631311419096 3.146793749055007 88.70501109356715 H 0.0 **** 0.06
6694 H 41.007106957790995 3.4343645728556567 87.29554947179739 H 0.0 **** 0.06
6695 H 42.63033495540543 2.739360433085295 87.06934284448604 H 0.0 **** 0.06
6696 C 33.38343052928431 1.1840555728254571 87.01812547081664 C 0.0 **** -0.24
6697 H 33.92100058481395 1.0670353520937397 86.07650320221677 H 0.0 **** 0.06
6698 H 33.11268743225486 0.20137279010367592 87.40480941838393 H 0.0 **** 0.06
6699 H 32.48080956775115 1.7711390224612842 86.85058406539147 H 0.0 **** 0.06
6700 H 34.021735828299626 1.6948018422476707 87.73951673454349 H 0.0 **** 0.06
6701 C 109.6943101090709 48.1935287673964 89.13635463819303 C 0.0 **** -0.24
6702 H 108.87624424548969 47.47449189719538 89.17196256308799 H 0.0 **** 0.06
6703 H 110.51228635626364 47.844690550822634 89.76672000132677 H 0.0 **** 0.06
6704 H 109.34391208242107 49.160362134146055 89.49791127829191 H 0.0 **** 0.06
6705 H 110.04397218373663 48.295073220129666 88.10908112177297 H 0.0 **** 0.06
6706 C 7.869376828406331 47.643676568841215 73.57891374810139 C 0.0 **** -0.24
6707 H 7.858894140553701 48.723921391218255 73.42979289861259 H 0.0 **** 0.06
6708 H 6.8792629497799 47.31103104120112 73.89101181956978 H 0.0 **** 0.06
6709 H 8.598327191220534 47.391614255094964 74.3497884091694 H 0.0 **** 0.06
6710 H 8.141652243242845 47.15131742241738 72.64577321153672 H 0.0 **** 0.06
6711 C 97.30655632563541 29.463651932435916 15.8457875298337 C 0.0 **** -0.24
6712 H 96.31583378051272 29.726024549406908 15.471965003289668 H 0.0 **** 0.06
6713 H 97.21676756223856 29.043113688586097 16.847337474119044 H 0.0 **** 0.06
6714 H 97.92880242021577 30.35783404153635 15.881070386994367 H 0.0 **** 0.06
6715 H 97.76222223086086 28.730162990268177 15.181852139062897 H 0.0 **** 0.06
6716 C 33.78224551438237 47.30572483991273 17.10820391213258 C 0.0 **** -0.24
6717 H 33.97209852828806 46.438160533879454 17.740356386750705 H 0.0 **** 0.06
6718 H 34.58174090862508 47.39963810638881 16.37203393306902 H 0.0 **** 0.06
6719 H 33.74794783766316 48.20305308798811 17.724836169891205 H 0.0 **** 0.06
6720 H 32.82924477808905 47.17988699317357 16.59522913809991 H 0.0 **** 0.06
6721 C 57.139659553048915 82.88731404651148 50.390230484803055 C 0.0 **** -0.24
6722 H 58.16331043803547 82.93368558837 50.76219458379876 H 0.0 **** 0.06
6723 H 56.45623251248438 82.73553348899972 51.226031838649305 H 0.0 **** 0.06
6724 H 57.04611446571266 82.05801908377782 49.689365381803725 H 0.0 **** 0.06
6725 H 56.89464541038916 83.82083151396449 49.88423650243732 H 0.0 **** 0.06
6726 C 2.022839780759405 88.80748842690883 14.685423288601442 C 0.0 **** -0.24
6727 H 2.8840271206801287 88.28409832177209 15.100926479063418 H 0.0 **** 0.06
6728 H 2.1227021603890774 89.87730042066443 14.87245163583907 H 0.0 **** 0.06
6729 H 1.111667210048557 88.43907235284337 15.156762737148114 H 0.0 **** 0.06
6730 H 1.9739079127764638 88.62961739846091 13.61125510362507 H 0.0 **** 0.06
6731 C 4.150426971488258 27.681032154738006 39.63154917516486 C 0.0 **** -0.24
6732 H 3.778905643011427 26.766757277857977 40.09459031308012 H 0.0 **** 0.06
6733 H 4.215332240780043 27.541718038785973 38.552805658387456 H 0.0 **** 0.06
6734 H 5.137820087353589 27.912976726272404 40.02947031193718 H 0.0 **** 0.06
6735 H 3.4683435349055856 28.50292611981513 39.85236878071284 H 0.0 **** 0.06
6736 C 32.94108116793075 18.051277964702365 82.2789320290886 C 0.0 **** -0.24
6737 H 33.406480955910524 18.81885041087415 82.89645065900223 H 0.0 **** 0.06
6738 H 32.15018764233844 17.559605886905103 82.84584891747389 H 0.0 **** 0.06
6739 H 33.691266281988646 17.314803084395578 81.98825892128454 H 0.0 **** 0.06
6740 H 32.51785916744677 18.51017334633147 81.38531695188206 H 0.0 **** 0.06
6741 C 31.581712976887815 31.269598958558447 63.37135559709077 C 0.0 **** -0.24
6742 H 31.88778863721025 31.977093140273865 64.14231826187014 H 0.0 **** 0.06
6743 H 31.603439590468767 30.257519085871678 63.77728796899936 H 0.0 **** 0.06
6744 H 32.264851289965996 31.33684049632444 62.524334121655244 H 0.0 **** 0.06
6745 H 30.569978253989305 31.507117141410646 63.042064369165644 H 0.0 **** 0.06
6746 C 105.74278393589475 93.21640275299927 13.594377845480352 C 0.0 **** -0.24
6747 H 106.41642615376455 94.05922245994164 13.748422721810584 H 0.0 **** 0.06
6748 H 105.84755771898301 92.51213929500543 14.419729389536258 H 0.0 **** 0.06
6749 H 105.99191890455373 92.71833643956712 12.657808891138046 H 0.0 **** 0.06
6750 H 104.71455950939335 93.57689404525587 13.552314413753606 H 0.0 **** 0.06
6751 C 31.019818222994502 58.256725749152 105.49389059363607 C 0.0 **** -0.24
6752 H 30.322298124795765 57.420600177192 105.43605015178127 H 0.0 **** 0.06
6753 H 31.945725364142675 57.99163973772886 104.98262535156107 H 0.0 **** 0.06
6754 H 31.232636038304577 58.48084451222809 106.53902076494988 H 0.0 **** 0.06
6755 H 30.578987374366534 59.13120732611458 105.01643712847522 H 0.0 **** 0.06
6756 C 8.814017846843797 64.54973687575568 93.64596197697445 C 0.0 **** -0.24
6757 H 9.587931851840324 64.9224342764399 92.9749519233331 H 0.0 **** 0.06
6758 H 8.48700892624612 65.35404448140113 94.30477542703757 H 0.0 **** 0.06
6759 H 9.215219213346757 63.73082401151616 94.24311180692723 H 0.0 **** 0.06
6760 H 7.967203535706801 64.19190926622228 93.06049836064224 H 0.0 **** 0.06
6761 C 16.595013873512414 89.75498907153315 9.15618039325534 C 0.0 **** -0.24
6762 H 15.877600748701411 90.34685724392932 9.72382038612028 H 0.0 **** 0.06
6763 H 16.106780722708265 88.8551712565951 8.779626135076882 H 0.0 **** 0.06
6764 H 17.426050938876188 89.47382056823972 9.802922531244974 H 0.0 **** 0.06
6765 H 16.969405910572902 90.3432403541367 8.317903706342037 H 0.0 **** 0.06
6766 C 10.756436081733796 47.4563859724841 69.93670814046007 C 0.0 **** -0.24
6767 H 10.189712680956944 47.13288114092512 70.81095927456363 H 0.0 **** 0.06
6768 H 10.222509009344208 47.16742539610141 69.0313367210646 H 0.0 **** 0.06
6769 H 11.73943444287815 46.98532185658155 69.9457944426407 H 0.0 **** 0.06
6770 H 10.872550391616272 48.53969903345387 69.96035102375185 H 0.0 **** 0.06
6771 C 84.04255756044176 28.66784365321473 22.175975677593215 C 0.0 **** -0.24
6772 H 83.7830309176372 29.395515486437375 21.406414500053728 H 0.0 **** 0.06
6773 H 84.86402250130331 29.054166506854756 22.779218355040143 H 0.0 **** 0.06
6774 H 84.34537042150134 27.732948415743067 21.70375324176959 H 0.0 **** 0.06
6775 H 83.17597739659641 28.489182029742608 22.81294710663414 H 0.0 **** 0.06
6776 C 42.78760574632787 103.7881054668793 36.4130064835398 C 0.0 **** -0.24
6777 H 41.984717031917626 104.22294765726582 37.008999566473996 H 0.0 **** 0.06
6778 H 43.69819359446427 103.74014275515395 37.01095474773777 H 0.0 **** 0.06
6779 H 42.96235696848635 104.40812460075182 35.5333292412954 H 0.0 **** 0.06
6780 H 42.50428774659622 102.78401432927086 36.1002805047033 H 0.0 **** 0.06
6781 C 35.10955570425097 107.72509541377912 103.48579643213174 C 0.0 **** -0.24
6782 H 34.9902753386448 108.65819637358203 102.93479321485086 H 0.0 **** 0.06
6783 H 34.537714826898586 107.77559870044422 104.41291250404291 H 0.0 **** 0.06
6784 H 36.16440442230186 107.57256199008219 103.7165810185771 H 0.0 **** 0.06
6785 H 34.74636642027632 106.8961177568325 102.87832518051346 H 0.0 **** 0.06
6786 C 85.11420866894125 63.52112856873924 79.80037157285366 C 0.0 **** -0.24
6787 H 85.32511880069052 62.4863911764258 79.53003070578131 H 0.0 **** 0.06
6788 H 84.24535454008921 63.872497229469445 79.24313613083305 H 0.0 **** 0.06
6789 H 85.97709828205979 64.14250439597924 79.56019800621209 H 0.0 **** 0.06
6790 H 84.90937513118214 63.58235651590314 80.86930566965384 H 0.0 **** 0.06
6791 C 7.814217646148993 61.70311204509733 50.533563612698345 C 0.0 **** -0.24
6792 H 7.264308711548136 60.852092575903555 50.130214111727696 H 0.0 **** 0.06
6793 H 8.766808299289885 61.35975449251151 50.939111951857456 H 0.0 **** 0.06
6794 H 7.228955587283339 62.17092791773376 51.32534917322829 H 0.0 **** 0.06
6795 H 7.9957270601101005 62.42662470144194 49.738830641050754 H 0.0 **** 0.06
6796 C 24.267015743609875 28.913931288806225 47.03390124932034 C 0.0 **** -0.24
6797 H 23.70758895558862 29.588817820638184 46.3866095567264 H 0.0 **** 0.06
6798 H 23.603200844933212 28.131859451872742 47.40271172134186 H 0.0 **** 0.06
6799 H 24.673268964914996 29.473518405282164 47.87605282454513 H 0.0 **** 0.06
6800 H 25.08215548513516 28.46299755030293 46.46957722520102 H 0.0 **** 0.06
6801 C 37.69338946677391 95.53914915636598 107.935722909947 C 0.0 **** -0.24
6802 H 38.73219534825944 95.28402220814115 107.72378573987149 H 0.0 **** 0.06
6803 H 37.655733154936854 96.48039846325625 108.4839477424764 H 0.0 **** 0.06
6804 H 37.241765550858815 94.74982518554101 108.53734511850814 H 0.0 **** 0.06
6805 H 37.14555028254932 95.64046337332725 106.99942363275366 H 0.0 **** 0.06
6806 C 42.50579756024399 16.52651548328933 11.221954712406546 C 0.0 **** -0.24
6807 H 42.219689128129446 17.55589117144595 11.004219945740633 H 0.0 **** 0.06
6808 H 41.73653368449655 15.849925041920628 10.84788484641632 H 0.0 **** 0.06
6809 H 42.610129959275575 16.39922130750233 12.299242348898346 H 0.0 **** 0.06
6810 H 43.45469521390296 16.302671489133132 10.735168507455843 H 0.0 **** 0.06
6811 C 27.826890628648293 71.0203254882648 11.030045488259645 C 0.0 **** -0.24
6812 H 28.788839323109073 70.51536199033023 11.11261218196259 H 0.0 **** 0.06
6813 H 27.693333453504486 71.68799222544465 11.882115566423323 H 0.0 **** 0.06
6814 H 27.02715900481119 70.27976523287703 11.019435574421834 H 0.0 **** 0.06
6815 H 27.79888003601203 71.59950920352844 10.107367139174343 H 0.0 **** 0.06
6816 C 57.0752216121229 28.34568125628678 13.260833611829 C 0.0 **** -0.24
6817 H 57.45978941804805 28.961001026595923 14.073783105501647 H 0.0 **** 0.06
6818 H 56.111264408639585 28.736500627050333 12.93427965668603 H 0.0 **** 0.06
6819 H 56.95259993164751 27.320099330768187 13.60865879198218 H 0.0 **** 0.06
6820 H 57.777232690156325 28.365124040732766 12.426612893146412 H 0.0 **** 0.06
6821 C 38.393827344113326 82.77753140839252 9.716880129244188 C 0.0 **** -0.24
6822 H 37.31952271928332 82.96212382776963 9.68498969442581 H 0.0 **** 0.06
6823 H 38.714442125059755 82.67768190420134 10.75394665507227 H 0.0 **** 0.06
6824 H 38.918889182082104 83.61312840309387 9.25289681558668 H 0.0 **** 0.06
6825 H 38.62164240037643 81.86013581039151 9.174394798824324 H 0.0 **** 0.06
6826 C 95.92985710082712 89.83096118956018 45.0701227660802 C 0.0 **** -0.24
6827 H 96.47406035081865 90.75530258652964 44.875475511052684 H 0.0 **** 0.06
6828 H 95.5525311461873 89.42763032458373 44.12957231623852 H 0.0 **** 0.06
6829 H 95.0934913042091 90.03567197785583 45.739516185182225 H 0.0 **** 0.06
6830 H 96.59852967342904 89.10711645294901 45.53502541694161 H 0.0 **** 0.06
6831 C 1.9232526212997891 84.38182079068109 1.3129465623937904 C 0.0 **** -0.24
6832 H 1.0732743519111807 85.04821219780152 1.458840880143839 H 0.0 **** 0.06
6833 H 1.5921992267511582 83.34644979346919 1.4019990813288246 H 0.0 **** 0.06
6834 H 2.6807107376975683 84.58803037919257 2.0697870925410484 H 0.0 **** 0.06
6835 H 2.3467830125013016 84.54472261239101 0.32214955471954454 H 0.0 **** 0.06
6836 C 104.32897332991068 46.910051982878215 3.9429394233277097 C 0.0 **** -0.24
6837 H 103.3448632616337 46.46080269440739 4.075985193234876 H 0.0 **** 0.06
6838 H 104.85090313873008 46.93077201222682 4.899835293473206 H 0.0 **** 0.06
6839 H 104.21568176832272 47.927534914878414 3.568220518050781 H 0.0 **** 0.06
6840 H 104.90356636186661 46.321534932504605 3.22752396906046 H 0.0 **** 0.06
6841 C 25.80838252928112 67.11137738916315 30.186757479964115 C 0.0 **** -0.24
6842 H 26.84033611620879 67.41012634755077 30.370731886374756 H 0.0 **** 0.06
6843 H 25.470466040463123 66.45905616091147 30.992492073102483 H 0.0 **** 0.06
6844 H 25.74686120815042 66.57952165002288 29.23801975856111 H 0.0 **** 0.06
6845 H 25.17576913555405 67.9976362041975 30.148088490674354 H 0.0 **** 0.06
6846 C 8.394245507936489 43.3400275547358 73.70766436698062 C 0.0 **** -0.24
6847 H 9.322318655513897 43.752933198048424 74.10316392538402 H 0.0 **** 0.06
6848 H 7.873961832428961 42.79636239810924 74.4969088665581 H 0.0 **** 0.06
6849 H 8.62095059681181 42.660874413536646 72.88566950313833 H 0.0 **** 0.06
6850 H 7.761500589966488 44.15016212499819 73.3462898561678 H 0.0 **** 0.06
6851 C 14.17022756682718 66.30224373573213 82.91635824798757 C 0.0 **** -0.24
6852 H 13.4012931116593 67.0382900571797 82.68062879974143 H 0.0 **** 0.06
6853 H 13.705102800359384 65.41861913276513 83.35223804251079 H 0.0 **** 0.06
6854 H 14.87655140092545 66.73043303897663 83.62751384817878 H 0.0 **** 0.06
6855 H 14.69821433564806 66.02425860389808 82.00403156063652 H 0.0 **** 0.06
6856 C 11.597981906825368 1.594131973295589 40.38539696674234 C 0.0 **** -0.24
6857 H 12.590929417182366 1.9562802609805203 40.11727454024184 H 0.0 **** 0.06
6858 H 11.647619067176606 0.5282854883187156 40.6075661409096 H 0.0 **** 0.06
6859 H 10.913412522170916 1.761165086553774 39.55314731527864 H 0.0 **** 0.06
6860 H 11.240455205968573 2.1336512747960796 41.2628155366467 H 0.0 **** 0.06
6861 C 11.362077380525292 100.70404001734443 107.4402688480115 C 0.0 **** -0.24
6862 H 10.6155274090316 100.11138461984015 106.91058639233084 H 0.0 **** 0.06
6863 H 11.698371128346707 101.5190241137099 106.79907528466109 H 0.0 **** 0.06
6864 H 12.20969755190086 100.07152897009071 107.70096689380159 H 0.0 **** 0.06
6865 H 10.921431668239094 101.11447458798949 108.34866718391847 H 0.0 **** 0.06
6866 C 12.466858022347651 9.848889920574791 88.02993628968193 C 0.0 **** -0.24
6867 H 11.890669320000796 10.171670131741564 88.89748702748511 H 0.0 **** 0.06
6868 H 12.831870514149813 10.724518838796484 87.4910404517629 H 0.0 **** 0.06
6869 H 11.832922271321934 9.254743196451628 87.37230354374668 H 0.0 **** 0.06
6870 H 13.313561767942872 9.24679148443309 88.36024976807278 H 0.0 **** 0.06
6871 C 92.1822990762903 44.09100854122321 106.61041281875639 C 0.0 **** -0.24
6872 H 93.03778543376076 44.617477173521074 107.03290846882071 H 0.0 **** 0.06
6873 H 91.3076583053379 44.25571589095065 107.24080540577722 H 0.0 **** 0.06
6874 H 92.39997609336396 43.02434036244042 106.56109325910688 H 0.0 **** 0.06
6875 H 91.98336220017158 44.46887352741455 105.60728973108633 H 0.0 **** 0.06
6876 C 81.21910598932362 4.958901836099642 97.87616589368902 C 0.0 **** -0.24
6877 H 81.48620949667134 5.86463403072662 98.41981154729594 H 0.0 **** 0.06
6878 H 81.57343630803075 4.08769555236222 98.42653879994256 H 0.0 **** 0.06
6879 H 81.67980513150292 4.978344572008382 96.88916237464854 H 0.0 **** 0.06
6880 H 80.1353381967728 4.905254877014158 97.7696241575298 H 0.0 **** 0.06
6881 C 74.75672316689312 28.432701912033394 51.12888441908831 C 0.0 **** -0.24
6882 H 74.70863234569184 28.109712822738857 50.089678964673226 H 0.0 **** 0.06
6883 H 73.78582428780139 28.28433922386347 51.6012450810224 H 0.0 **** 0.06
6884 H 75.02209654844867 29.490048888000956 51.16806560052743 H 0.0 **** 0.06
6885 H 75.51118980667178 27.849404368566 51.65655172552417 H 0.0 **** 0.06
6886 C 99.29414273503437 54.098690861433795 50.992300901418275 C 0.0 **** -0.24
6887 H 99.52277436396545 53.08976081999407 51.334990934395336 H 0.0 **** 0.06
6888 H 99.66719855453022 54.2313782364281 49.97672709756645 H 0.0 **** 0.06
6889 H 99.7717279693095 54.82323102498643 51.6532870737463 H 0.0 **** 0.06
6890 H 98.21540500819754 54.25154888358003 51.00672416813347 H 0.0 **** 0.06
6891 C 21.93462087203113 64.93156546364804 74.150499169147 C 0.0 **** -0.24
6892 H 21.735042384798426 63.88545623294928 74.38277624073066 H 0.0 **** 0.06
6893 H 22.034644922768706 65.05088081597984 73.07191085928253 H 0.0 **** 0.06
6894 H 22.859775625268675 65.24101227137464 74.63744898384618 H 0.0 **** 0.06
6895 H 21.11082631526307 65.5477418412079 74.51103063986062 H 0.0 **** 0.06
6896 C 92.79566045617997 72.93618986788482 80.2668580616496 C 0.0 **** -0.24
6897 H 93.08275815930904 73.51936020897332 79.39173063841412 H 0.0 **** 0.06
6898 H 92.10195499012735 72.15083479803053 79.96909674705302 H 0.0 **** 0.06
6899 H 92.31474067203402 73.58928810106056 80.99504731570931 H 0.0 **** 0.06
6900 H 93.68473145997069 72.48868277341643 80.71167926864712 H 0.0 **** 0.06
6901 C 36.948852749009916 42.580447942896456 105.89707114391821 C 0.0 **** -0.24
6902 H 36.87446932701499 43.574819837755214 105.45779408862035 H 0.0 **** 0.06
6903 H 37.42669434110243 41.90470050343943 105.18787897420847 H 0.0 **** 0.06
6904 H 35.94975281297667 42.21310197197856 106.13371864486118 H 0.0 **** 0.06
6905 H 37.54236289643771 42.62992097177294 106.80983718353986 H 0.0 **** 0.06
6906 C 96.30447035379919 44.56960297734514 31.63022521009445 C 0.0 **** -0.24
6907 H 95.88597216824049 45.302459330225474 30.939858928456488 H 0.0 **** 0.06
6908 H 97.06055894567096 45.048913441807315 32.25324794262471 H 0.0 **** 0.06
6909 H 96.76068995376959 43.75661235028872 31.0653750964548 H 0.0 **** 0.06
6910 H 95.51049480164946 44.17285497695565 32.26214176265432 H 0.0 **** 0.06
6911 C 25.134936026368152 18.46276169129294 43.823216496344344 C 0.0 **** -0.24
6912 H 25.10846261219038 18.01161251432231 42.83072298531681 H 0.0 **** 0.06
6913 H 26.168418279810737 18.671423262178564 44.09961387029483 H 0.0 **** 0.06
6914 H 24.695946601880323 17.775008187625502 44.54556966856114 H 0.0 **** 0.06
6915 H 24.565304360731673 19.39200004403415 43.81423996150926 H 0.0 **** 0.06
6916 C 47.33568507828469 68.59620464059236 1.0161289900580357 C 0.0 **** -0.24
6917 H 47.13011460687133 69.2445683737372 0.1639282967140332 H 0.0 **** 0.06
6918 H 47.202853817530155 69.15828033794972 1.9404013989460793 H 0.0 **** 0.06
6919 H 48.36148883261955 68.23302034896312 0.9562245435849093 H 0.0 **** 0.06
6920 H 46.64930064770684 67.74967261054957 1.003297099641756 H 0.0 **** 0.06
6921 C 77.84215111226897 53.897812727127686 16.15631379524827 C 0.0 **** -0.24
6922 H 77.10910279069935 53.8974594116295 15.349913930429139 H 0.0 **** 0.06
6923 H 77.65523361628618 54.74437369758907 16.81711793641148 H 0.0 **** 0.06
6924 H 78.84493245102199 53.97924838313915 15.734465889368565 H 0.0 **** 0.06
6925 H 77.76138817968805 52.968935768350605 16.721950370397764 H 0.0 **** 0.06
6926 C 6.244437454469676 102.90624343668952 107.68814434887165 C 0.0 **** -0.24
6927 H 5.87069021207833 103.73649947291744 107.08741418090764 H 0.0 **** 0.06
6928 H 7.033049601938615 103.26360974803367 108.35020169078408 H 0.0 **** 0.06
6929 H 6.643071631658643 102.13360899143561 107.03045479066873 H 0.0 **** 0.06
6930 H 5.429711467170023 102.49343168695844 108.2831802844172 H 0.0 **** 0.06
6931 C 6.662468686666344 93.74947470780802 85.65142564540619 C 0.0 **** -0.24
6932 H 6.628735731690012 93.69808627301164 86.74029391759393 H 0.0 **** 0.06
6933 H 6.6754579438424635 94.7938431460755 85.33755363191683 H 0.0 **** 0.06
6934 H 5.783866255228411 93.25538720016135 85.23710449563147 H 0.0 **** 0.06
6935 H 7.56272330518666 93.25075656174558 85.29301869676115 H 0.0 **** 0.06
6936 C 26.28124088722339 52.70221661074842 25.190154197033408 C 0.0 **** -0.24
6937 H 26.419602863139175 53.401101934151825 26.015048733794345 H 0.0 **** 0.06
6938 H 25.223197074690233 52.45424917336345 25.099820244780346 H 0.0 **** 0.06
6939 H 26.852077873899688 51.79441508115369 25.384595016716005 H 0.0 **** 0.06
6940 H 26.628437576450736 53.15995321278237 24.264244181161615 H 0.0 **** 0.06
6941 C 46.11251769229622 51.50329212372577 71.79977424122148 C 0.0 **** -0.24
6942 H 45.776150202335174 50.55802377134481 71.37505040937083 H 0.0 **** 0.06
6943 H 45.76138194030938 52.32696190514184 71.17678018467814 H 0.0 **** 0.06
6944 H 47.2021959405339 51.51684155704373 71.83901084661295 H 0.0 **** 0.06
6945 H 45.71110971103403 51.613078729265396 72.80707521523323 H 0.0 **** 0.06
6946 C 63.11024337592886 5.935859403237259 3.7840261189865885 C 0.0 **** -0.24
6947 H 63.34225045570611 6.512490756898558 4.679402422577681 H 0.0 **** 0.06
6948 H 63.324627420908826 4.882982031877532 3.9641577275781685 H 0.0 **** 0.06
6949 H 63.718906046761674 6.294131005451732 2.953891830823437 H 0.0 **** 0.06
6950 H 62.054260739445425 6.056064878505765 3.5390524055798664 H 0.0 **** 0.06
6951 C 80.88817413520292 105.90917493520338 51.591972695539994 C 0.0 **** -0.24
6952 H 81.03384354334355 106.95494246270806 51.318618515764 H 0.0 **** 0.06
6953 H 81.35308501166742 105.27051384451583 50.84134989552345 H 0.0 **** 0.06
6954 H 79.82079208680477 105.69348964312277 51.64375270707086 H 0.0 **** 0.06
6955 H 81.34504274316816 105.721480783901 52.56384446281473 H 0.0 **** 0.06
6956 C 66.12388279544057 5.211825682169717 11.021087310287044 C 0.0 **** -0.24
6957 H 65.42145264054489 6.029449406609501 11.185708391786108 H 0.0 **** 0.06
6958 H 66.69657841786572 5.402961286303537 10.112775849894206 H 0.0 **** 0.06
6959 H 65.57401616791188 4.2767450244381 10.913757935924167 H 0.0 **** 0.06
6960 H 66.80208463101714 5.139255447266862 11.870429695786214 H 0.0 **** 0.06
6961 C 63.17339902177085 39.580813273342415 58.2620004283599 C 0.0 **** -0.24
6962 H 63.761686663351554 40.34880731403183 58.76355052874112 H 0.0 **** 0.06
6963 H 62.32561245345319 39.304920052755534 58.89011877868609 H 0.0 **** 0.06
6964 H 63.79568751257219 38.70379868842741 58.084326071827604 H 0.0 **** 0.06
6965 H 62.80971405054572 39.96670465139647 57.30951377056465 H 0.0 **** 0.06
6966 C 84.12055420275512 74.55368380740384 15.72066826419561 C 0.0 **** -0.24
6967 H 84.16359333318051 73.86792269282142 16.566564260492385 H 0.0 **** 0.06
6968 H 84.40453836566117 74.0257842317352 14.809932957832842 H 0.0 **** 0.06
6969 H 84.80773276396354 75.38292605347186 15.890758500795016 H 0.0 **** 0.06
6970 H 83.10656657096571 74.93908319921366 15.616413304991653 H 0.0 **** 0.06
6971 C 68.16434905408119 90.89136766132793 81.08509949622622 C 0.0 **** -0.24
6972 H 67.54081464927998 90.78004773770584 80.19765514038862 H 0.0 **** 0.06
6973 H 67.52980909413998 90.9710492782271 81.96769260962716 H 0.0 **** 0.06
6974 H 68.77144922406819 91.79180028937466 80.99079040421596 H 0.0 **** 0.06
6975 H 68.81530312635834 90.02192232239895 81.18300449338064 H 0.0 **** 0.06
6976 C 101.02319760676676 37.81846101114266 14.364480214892957 C 0.0 **** -0.24
6977 H 100.25581198720873 37.0875543540337 14.619369406163766 H 0.0 **** 0.06
6978 H 101.13505189552427 37.863916329289765 13.281001934517612 H 0.0 **** 0.06
6979 H 101.97004560187123 37.52369484143584 14.816127727353223 H 0.0 **** 0.06
6980 H 100.7297865058746 38.798510446713365 14.740656717553751 H 0.0 **** 0.06
6981 C 65.0012106213152 19.948062302225576 76.80794698210858 C 0.0 **** -0.24
6982 H 64.649514179424 20.87816922692388 77.2548647311431 H 0.0 **** 0.06
6983 H 65.67747251353363 20.17471562360194 75.9830864443123 H 0.0 **** 0.06
6984 H 64.14903322015509 19.3807312324775 76.43307915088906 H 0.0 **** 0.06
6985 H 65.52805981355614 19.359265004282435 77.55875281271744 H 0.0 **** 0.06
6986 C 78.08182226779294 66.9297854266459 23.323657677092058 C 0.0 **** -0.24
6987 H 78.93371251408135 67.57603766466991 23.533956889828914 H 0.0 **** 0.06
6988 H 78.42248868318961 66.0436400598906 22.788145293400873 H 0.0 **** 0.06
6989 H 77.35907336940829 67.46981072508191 22.71081796535441 H 0.0 **** 0.06
6990 H 77.61217420497493 66.63007381664642 24.260817432935596 H 0.0 **** 0.06
6991 C 90.35815320410313 63.23503162200802 22.296680715546387 C 0.0 **** -0.24
6992 H 91.30443324478836 62.724806068922305 22.479242353775504 H 0.0 **** 0.06
6993 H 90.40055096230287 64.23983131446926 22.71838179177695 H 0.0 **** 0.06
6994 H 89.54908078443032 62.677065154154775 22.766732745093037 H 0.0 **** 0.06
6995 H 90.1811938921906 63.29805404413622 21.223294356889966 H 0.0 **** 0.06
6996 C 76.74896450069856 25.068690722172676 36.88459110461537 C 0.0 **** -0.24
6997 H 76.9529917683688 24.353563232664328 37.681980167653535 H 0.0 **** 0.06
6998 H 75.78539458050885 25.54584180559752 37.06316204434631 H 0.0 **** 0.06
6999 H 76.72620288009301 24.54796974324566 35.92791914331346 H 0.0 **** 0.06
7000 H 77.53262857813304 25.825817300600676 36.8684150083287 H 0.0 **** 0.06
7001 C 7.798771782606821 99.8084154240671 67.466112168727 C 0.0 **** -0.24
7002 H 7.859717414665738 98.72760525091212 67.34036357046574 H 0.0 **** 0.06
7003 H 7.2504813095169425 100.24138391175603 66.62820424913974 H 0.0 **** 0.06
7004 H 8.803460254974482 100.22838726846274 67.4985219048753 H 0.0 **** 0.06
7005 H 7.279521913552628 100.03651673626456 68.39679959366092 H 0.0 **** 0.06
7006 C 28.559015008899962 108.80893643041495 49.33696083884183 C 0.0 **** -0.24
7007 H 28.121778917908443 109.79366191189327 49.179341239677 H 0.0 **** 0.06
7008 H 28.400273542449668 108.19351416591469 48.45069711931865 H 0.0 **** 0.06
7009 H 28.08708478003001 108.3343624914385 50.1978424887987 H 0.0 **** 0.06
7010 H 29.629085119255933 108.91142393957992 49.521219004662385 H 0.0 **** 0.06
7011 C 21.50987024404518 38.85783853725502 22.767478802332136 C 0.0 **** -0.24
7012 H 20.70756121276091 38.119647082173685 22.785349676495827 H 0.0 **** 0.06
7013 H 22.46741661234342 38.34890660385082 22.65153901554126 H 0.0 **** 0.06
7014 H 21.507257413303 39.41997777904902 23.700794572376594 H 0.0 **** 0.06
7015 H 21.356606554347387 39.539820841616546 21.93146978354943 H 0.0 **** 0.06
7016 C 30.024670606628604 13.421154821151102 1.0940821311270383 C 0.0 **** -0.24
7017 H 29.921107752984767 13.757114077437944 2.1257922847471775 H 0.0 **** 0.06
7018 H 30.32882372898672 12.374537183422799 1.0820767868859775 H 0.0 **** 0.06
7019 H 30.779056401036883 14.025929982450805 0.5897589568947126 H 0.0 **** 0.06
7020 H 29.0699759207626 13.529231826256485 0.579753318869308 H 0.0 **** 0.06
7021 C 20.702257000137763 50.01046917174489 84.49318123107582 C 0.0 **** -0.24
7022 H 19.900293797740176 49.5672318757058 83.9029724158647 H 0.0 **** 0.06
7023 H 20.86925546018776 49.41068550937132 85.38844200630751 H 0.0 **** 0.06
7024 H 20.423394630204086 51.0242747768379 84.78139075912532 H 0.0 **** 0.06
7025 H 21.617060470503702 50.03978034184513 83.8997258504773 H 0.0 **** 0.06
7026 C 15.014974827388926 45.7148175773641 67.0710395831334 C 0.0 **** -0.24
7027 H 15.816827165916095 46.40523657450768 66.80954357263556 H 0.0 **** 0.06
7028 H 14.23903472929004 46.25080106443744 67.61871782661083 H 0.0 **** 0.06
7029 H 15.413082774564486 44.91437319683382 67.6942831665651 H 0.0 **** 0.06
7030 H 14.590933720557246 45.29073013961926 66.16038884929321 H 0.0 **** 0.06
7031 C 33.64580007624744 88.8886684585159 89.62682499061357 C 0.0 **** -0.24
7032 H 34.439549860539046 88.81305831540035 90.36939490037304 H 0.0 **** 0.06
7033 H 33.4409126211512 89.93948811646605 89.41975505538511 H 0.0 **** 0.06
7034 H 32.744523589973014 88.41035195273481 90.00949680597313 H 0.0 **** 0.06
7035 H 33.959058217091695 88.39189551867582 88.70917600572095 H 0.0 **** 0.06
7036 C 16.493394609139045 96.10632358401922 18.690024492547565 C 0.0 **** -0.24
7037 H 16.263474614013976 97.09862473665304 18.301014225490377 H 0.0 **** 0.06
7038 H 17.462395856988802 95.78311304188179 18.30914488063445 H 0.0 **** 0.06
7039 H 15.72389784676015 95.40381620011901 18.369667116333062 H 0.0 **** 0.06
7040 H 16.523719605978698 96.14071504008345 19.778261262087028 H 0.0 **** 0.06
7041 C 40.5932768860019 43.159914537792076 84.99684418982991 C 0.0 **** -0.24
7042 H 39.77162502238127 42.54454969412842 84.62973783111141 H 0.0 **** 0.06
7043 H 40.21165933012465 43.880615389737045 85.72073168296083 H 0.0 **** 0.06
7044 H 41.050494975890274 43.69057130677021 84.16159108258387 H 0.0 **** 0.06
7045 H 41.33826176681721 42.524801081508144 85.4750168598963 H 0.0 **** 0.06
7046 C 35.891022445780294 98.87905955408644 34.31449431181366 C 0.0 **** -0.24
7047 H 35.78937785347662 99.23850694721779 35.33871289351282 H 0.0 **** 0.06
7048 H 36.940477506494034 98.66867986822695 34.10704739663552 H 0.0 **** 0.06
7049 H 35.528830214784534 99.64038345012864 33.62447881532961 H 0.0 **** 0.06
7050 H 35.305903300437365 97.96759360951955 34.18988220325929 H 0.0 **** 0.06
7051 C 8.754398417901342 34.17649017211525 109.42321282480475 C 0.0 **** -0.24
7052 H 9.723083868103387 34.14941175353688 108.92360896265713 H 0.0 **** 0.06
7053 H 8.389478716862016 33.15832631009047 109.56186613785079 H 0.0 **** 0.06
7054 H 8.046846118272398 34.73584233789549 108.81109957221452 H 0.0 **** 0.06
7055 H 8.858918284290965 34.661249975232394 110.39324591762615 H 0.0 **** 0.06
7056 C 64.84674471483149 79.63964796449159 62.01845411128495 C 0.0 **** -0.24
7057 H 63.97937880812202 80.16169716278335 62.42198692268123 H 0.0 **** 0.06
7058 H 65.36870946846153 80.29246068089623 61.318402602983895 H 0.0 **** 0.06
7059 H 64.51887561125642 78.73790010644711 61.50034849232382 H 0.0 **** 0.06
7060 H 65.51820759627856 79.36805011888009 62.832419033031044 H 0.0 **** 0.06
7061 C 97.62520244011307 103.43510606206377 18.875015662342918 C 0.0 **** -0.24
7062 H 98.03614670398917 103.91301981086201 19.76532352151176 H 0.0 **** 0.06
7063 H 98.3930675493068 102.818937071535 18.40762004539934 H 0.0 **** 0.06
7064 H 97.29525505370691 104.20063906446927 18.172842130560923 H 0.0 **** 0.06
7065 H 96.77815825416286 102.80974594373072 19.15692628243798 H 0.0 **** 0.06
7066 C 2.2967907580253897 62.421154615780836 55.89089259974754 C 0.0 **** -0.24
7067 H 1.6352267007411685 61.686806992567156 56.34908386586297 H 0.0 **** 0.06
7068 H 2.9980367757946986 61.91507012836263 55.22837302989192 H 0.0 **** 0.06
7069 H 2.8476228585365 62.948145103217726 56.670270414559894 H 0.0 **** 0.06
7070 H 1.7050259244249277 63.13563106725445 55.31767748230553 H 0.0 **** 0.06
7071 C 41.13771652712114 43.99415467850318 53.49168526544702 C 0.0 **** -0.24
7072 H 40.53207954383208 44.421179171599704 54.29204502203402 H 0.0 **** 0.06
7073 H 41.33148415296145 42.943398807011704 53.70386411605813 H 0.0 **** 0.06
7074 H 42.08324616850848 44.533326831213 53.424992889604255 H 0.0 **** 0.06
7075 H 40.60219827402915 44.08196151266256 52.545797879402016 H 0.0 **** 0.06
7076 C 73.02019825347372 42.46876281888009 56.62649796733507 C 0.0 **** -0.24
7077 H 72.9766909532807 43.2368354592118 57.39899540411511 H 0.0 **** 0.06
7078 H 72.02864081795155 42.03649120351755 56.487829682270274 H 0.0 **** 0.06
7079 H 73.71750095740356 41.68810635728095 56.929954952261824 H 0.0 **** 0.06
7080 H 73.35757479981584 42.91317588365597 55.69049861298652 H 0.0 **** 0.06
7081 C 86.62794411154437 29.025581313722057 72.04915961190429 C 0.0 **** -0.24
7082 H 86.484612437778 28.565441754085725 71.07146520588367 H 0.0 **** 0.06
7083 H 85.66668982484363 29.099978235130294 72.55935184387386 H 0.0 **** 0.06
7084 H 87.05059365153903 30.022065104773475 71.92422719831617 H 0.0 **** 0.06
7085 H 87.30742489112122 28.4145422801503 72.6429658762807 H 0.0 **** 0.06
7086 C 90.31743238449295 76.38152756211343 15.853518272316308 C 0.0 **** -0.24
7087 H 90.60062027512652 76.78564702741326 14.882301642959305 H 0.0 **** 0.06
7088 H 89.2957266670727 76.0043547471385 15.807108832183701 H 0.0 **** 0.06
7089 H 90.38056191098525 77.16747526406282 16.606640868046668 H 0.0 **** 0.06
7090 H 90.99300616958482 75.56842523129896 16.12045539395075 H 0.0 **** 0.06
7091 C 94.53983430618912 67.97400412599711 16.794913395391454 C 0.0 **** -0.24
7092 H 95.27724133872256 68.6886826359709 16.42910164036514 H 0.0 **** 0.06
7093 H 94.9456319109766 67.44208556495312 17.65643342811734 H 0.0 **** 0.06
7094 H 94.30343956263266 67.26055824354785 16.005606598720355 H 0.0 **** 0.06
7095 H 93.6347368322281 68.50443765060345 17.088575624552597 H 0.0 **** 0.06
7096 C 52.371452782046106 34.106350293848635 105.1866251440456 C 0.0 **** -0.24
7097 H 52.46920210789983 33.02258626557955 105.24053504078157 H 0.0 **** 0.06
7098 H 51.50369068375841 34.42153958479432 105.76572303187169 H 0.0 **** 0.06
7099 H 52.24369143700824 34.40823145735155 104.14666092457696 H 0.0 **** 0.06
7100 H 53.26990898069664 34.5721826232716 105.59269100390836 H 0.0 **** 0.06
7101 C 106.90463046137856 17.079429958482297 34.44419551784639 C 0.0 **** -0.24
7102 H 106.07274250789531 16.695313858088586 35.035741844691195 H 0.0 **** 0.06
7103 H 107.72948412294153 17.34338856163524 35.106775379630285 H 0.0 **** 0.06
7104 H 106.5809955590931 17.9631268486139 33.894788602823496 H 0.0 **** 0.06
7105 H 107.23377893584136 16.314751014937706 33.74102192772529 H 0.0 **** 0.06
7106 C 49.5355244905454 93.00796260200454 65.75782335949171 C 0.0 **** -0.24
7107 H 48.87284298805594 92.33537484357532 66.30452966200257 H 0.0 **** 0.06
7108 H 50.23411841588288 92.4222826596238 65.16046646980084 H 0.0 **** 0.06
7109 H 50.08921712605044 93.6250424494389 66.4651525881437 H 0.0 **** 0.06
7110 H 48.94434564165209 93.64710923373288 65.10267998673254 H 0.0 **** 0.06
7111 C 50.71013556140923 64.02995711885666 102.93172996983175 C 0.0 **** -0.24
7112 H 51.3691101833642 64.82444115159387 103.28155891026532 H 0.0 **** 0.06
7113 H 50.82033958052736 63.157541150399766 103.57636802303993 H 0.0 **** 0.06
7114 H 50.974623684609355 63.76317516176823 101.90871328810606 H 0.0 **** 0.06
7115 H 49.677191030846444 64.37640887214764 102.96148732955788 H 0.0 **** 0.06
7116 C 74.1755527452506 84.63265753108624 86.54578225316186 C 0.0 **** -0.24
7117 H 75.15608407504239 84.81561461088017 86.9864428935881 H 0.0 **** 0.06
7118 H 73.41520676568362 85.16354608668598 87.11813270269647 H 0.0 **** 0.06
7119 H 73.9638240005286 83.56352689949028 86.56479197362455 H 0.0 **** 0.06
7120 H 74.16901692161743 84.98618271038606 85.51524942592869 H 0.0 **** 0.06
7121 C 56.116313368265395 10.373869892512488 45.48444165565377 C 0.0 **** -0.24
7122 H 55.96501468768369 9.326891141479877 45.74675811342911 H 0.0 **** 0.06
7123 H 55.39756745957811 10.990855459501006 46.023609397577616 H 0.0 **** 0.06
7124 H 55.974879660016114 10.50322751184953 44.41117334279579 H 0.0 **** 0.06
7125 H 57.12855440652365 10.673432996054032 45.755099622976616 H 0.0 **** 0.06
7126 C 62.296757959861225 78.48403100891602 78.1295958793285 C 0.0 **** -0.24
7127 H 62.68540768413075 79.08984011174832 78.9490667629523 H 0.0 **** 0.06
7128 H 61.94186535537352 77.52980578081373 78.52089149742977 H 0.0 **** 0.06
7129 H 63.08888084154722 78.30755663493184 77.40201367699896 H 0.0 **** 0.06
7130 H 61.47210441366184 79.0097413040037 77.64985024917421 H 0.0 **** 0.06
7131 C 11.887282001123936 56.83828187861718 85.97343102511971 C 0.0 **** -0.24
7132 H 12.538000437169671 56.511074910506125 85.16347067425687 H 0.0 **** 0.06
7133 H 11.685499248205304 57.90499967386552 85.87034535985522 H 0.0 **** 0.06
7134 H 12.376070295606496 56.650495384571855 86.92986607780769 H 0.0 **** 0.06
7135 H 10.948725285635078 56.28460135454304 85.93073489248681 H 0.0 **** 0.06
7136 C 44.60665244996838 26.591752953547996 48.414554864856996 C 0.0 **** -0.24
7137 H 44.900338628907996 26.57257680006694 49.46382528249916 H 0.0 **** 0.06
7138 H 45.35122912686755 26.062945229844445 47.81934674535634 H 0.0 **** 0.06
7139 H 44.53809762326498 27.626431816578474 48.075727893495895 H 0.0 **** 0.06
7140 H 43.63736919331517 26.1074102713892 48.298784246225466 H 0.0 **** 0.06
7141 C 38.290599065424715 34.95987273224319 83.66101269938946 C 0.0 **** -0.24
7142 H 39.04176621010339 34.49741188471859 84.30293849107969 H 0.0 **** 0.06
7143 H 38.43648053688935 36.03993868044218 83.65314728715174 H 0.0 **** 0.06
7144 H 37.296163888600404 34.72884117260361 84.04153967321122 H 0.0 **** 0.06
7145 H 38.39165640818618 34.57143588141146 82.64745215696092 H 0.0 **** 0.06
7146 C 32.49162012793088 51.660565138089964 88.97835964842614 C 0.0 **** -0.24
7147 H 33.29254464873801 52.074087016598355 89.59065391073784 H 0.0 **** 0.06
7148 H 32.439922409677 52.201903112456705 88.03431027619496 H 0.0 **** 0.06
7149 H 31.54351383308287 51.75928322312308 89.50707216901256 H 0.0 **** 0.06
7150 H 32.69022135500495 50.607122458857134 88.78361685396635 H 0.0 **** 0.06
7151 C 47.73359030837599 85.86289156315081 44.049777996092814 C 0.0 **** -0.24
7152 H 48.48595866064357 86.50736284199746 44.50540877884575 H 0.0 **** 0.06
7153 H 48.2029275277605 85.24037502281436 43.28827918303588 H 0.0 **** 0.06
7154 H 46.95927358387876 86.47737185350184 43.59055222197759 H 0.0 **** 0.06
7155 H 47.28822209937716 85.22784043911565 44.814825642744665 H 0.0 **** 0.06
7156 C 32.42228962675236 18.696202115005974 73.0001256786972 C 0.0 **** -0.24
7157 H 32.141743435569936 18.044986078759706 73.82866252085671 H 0.0 **** 0.06
7158 H 33.17409918419958 18.19962082755916 72.38630227529103 H 0.0 **** 0.06
7159 H 32.829699830362074 19.627302616802723 73.39166293021344 H 0.0 **** 0.06
7160 H 31.541794418194513 18.91031769065515 72.39401392400703 H 0.0 **** 0.06
7161 C 65.05106270364308 42.60449628116697 77.17088128061147 C 0.0 **** -0.24
7162 H 65.40004148378756 42.77204969597068 78.18946724141256 H 0.0 **** 0.06
7163 H 63.97096000687506 42.45214575897563 77.17864688520797 H 0.0 **** 0.06
7164 H 65.54015041927772 41.721393917519435 76.75969621778188 H 0.0 **** 0.06
7165 H 65.29149724785975 43.472337709643284 76.5569112427336 H 0.0 **** 0.06
7166 C 17.397493108070364 77.57791684725782 23.242216081661176 C 0.0 **** -0.24
7167 H 17.147155134254803 77.06823472788284 24.17237829596754 H 0.0 **** 0.06
7168 H 18.18307625230682 78.31093301131915 23.430540933619042 H 0.0 **** 0.06
7169 H 16.512812983614452 78.08448998481754 22.855679544187776 H 0.0 **** 0.06
7170 H 17.747077510162114 76.84908886228186 22.51161208521773 H 0.0 **** 0.06
7171 C 14.571565661329572 109.47081922652075 93.62301307747714 C 0.0 **** -0.24
7172 H 15.527581007743358 109.88248841056418 93.30071689016575 H 0.0 **** 0.06
7173 H 14.576680169763836 108.38936400292494 93.48364946044217 H 0.0 **** 0.06
7174 H 13.769353347344996 109.90954759053193 93.03084208286703 H 0.0 **** 0.06
7175 H 14.413448248602386 109.70071316724295 94.67676893117311 H 0.0 **** 0.06
7176 C 4.664840843295892 46.46543800864373 89.7394691332862 C 0.0 **** -0.24
7177 H 3.8484213538097833 46.488497909632486 90.46008560712318 H 0.0 **** 0.06
7178 H 5.446193171719187 45.794281004720204 90.09724362949356 H 0.0 **** 0.06
7179 H 5.074246165567942 47.46836358697923 89.62136636481227 H 0.0 **** 0.06
7180 H 4.29215142782823 46.109553981207085 88.77810033060211 H 0.0 **** 0.06
7181 C 88.78705172201934 92.19282424126743 92.86885960428555 C 0.0 **** -0.24
7182 H 89.19834224710864 92.76589174903614 93.6999212588523 H 0.0 **** 0.06
7183 H 88.89867965956338 91.12771462306733 93.07235271948758 H 0.0 **** 0.06
7184 H 89.32016720914753 92.44611073261223 91.95331196128046 H 0.0 **** 0.06
7185 H 87.72927527910566 92.43155801315262 92.7526744968992 H 0.0 **** 0.06
7186 C 6.466011958277505 99.41911565877962 102.70219447693343 C 0.0 **** -0.24
7187 H 6.311149257830095 99.95045168273674 103.64079890054433 H 0.0 **** 0.06
7188 H 7.100749560569426 98.55063556965058 102.87733221912654 H 0.0 **** 0.06
7189 H 6.946794817753272 100.08255318301639 101.98412751216891 H 0.0 **** 0.06
7190 H 5.504171002028755 99.09255302357258 102.30724570174755 H 0.0 **** 0.06
7191 C 82.73494449225446 18.1458790830377 98.95294896633571 C 0.0 **** -0.24
7192 H 83.44961271593472 17.54451533226245 99.51443331922114 H 0.0 **** 0.06
7193 H 81.9982483315378 17.49231339411773 98.48567988515613 H 0.0 **** 0.06
7194 H 83.2613882413563 18.710214258588735 98.18246302945253 H 0.0 **** 0.06
7195 H 82.2314217465471 18.83752431305612 99.62953268704482 H 0.0 **** 0.06
7196 C 103.79404251766704 41.44136102117545 82.11682648769457 C 0.0 **** -0.24
7197 H 103.1236772168562 42.05258497159676 81.51267305369535 H 0.0 **** 0.06
7198 H 103.88138535036616 41.87506214120252 83.11391394156176 H 0.0 **** 0.06
7199 H 104.77766774492478 41.4087734516464 81.64739999015522 H 0.0 **** 0.06
7200 H 103.39454392088781 40.43053290312659 82.19402804217897 H 0.0 **** 0.06
7201 C 19.326937603389062 24.83683988655143 70.71116643542211 C 0.0 **** -0.24
7202 H 19.244230728837984 23.859149504591727 70.23598032163517 H 0.0 **** 0.06
7203 H 19.35205530485831 24.71389075913133 71.7938636871043 H 0.0 **** 0.06
7204 H 18.467591711538002 25.44895298607163 70.43493285359983 H 0.0 **** 0.06
7205 H 20.243023822583602 25.325839675546007 70.37814085926436 H 0.0 **** 0.06
7206 C 13.88287356039531 109.18383942999753 71.65904636822049 C 0.0 **** -0.24
7207 H 14.702312600003722 109.53832352388508 72.28450414545813 H 0.0 **** 0.06
7208 H 13.941920161885562 109.65986719722338 70.68008783341216 H 0.0 **** 0.06
7209 H 12.932637419697812 109.43530098089371 72.12899109175817 H 0.0 **** 0.06
7210 H 13.956188915924386 108.10258310020203 71.54279519709097 H 0.0 **** 0.06
7211 C 77.77432559317384 76.9812267490019 54.23766117762176 C 0.0 **** -0.24
7212 H 77.02578705309571 77.0931781393939 53.45383745524691 H 0.0 **** 0.06
7213 H 77.96653790160002 77.95118083538807 54.69701862441161 H 0.0 **** 0.06
7214 H 78.69734406273466 76.59320165150848 53.80649163208136 H 0.0 **** 0.06
7215 H 77.4068000873919 76.28761085716002 54.99440866938153 H 0.0 **** 0.06
7216 C 24.55295268332742 77.0716281619786 4.843961357043128 C 0.0 **** -0.24
7217 H 25.554027417512742 77.45945672221802 5.0319403609939 H 0.0 **** 0.06
7218 H 23.890678713337593 77.36365429775816 5.659646782377266 H 0.0 **** 0.06
7219 H 24.59069924561919 75.98444302982159 4.7779507541099235 H 0.0 **** 0.06
7220 H 24.17573779090978 77.47969130399139 3.9061750614222603 H 0.0 **** 0.06
7221 C 0.19100822870538536 85.84278306429997 39.944793371930274 C 0.0 **** -0.24
7222 H 0.9109024987535577 86.1333822683738 40.711073453709574 H 0.0 **** 0.06
7223 H 0.5451437012640099 86.17574514961558 38.969221209407664 H 0.0 **** 0.06
7224 H -0.7726229407935818 86.30396254014175 40.158489730004405 H 0.0 **** 0.06
7225 H 0.08260196219725913 84.75844983532497 39.941754719100004 H 0.0 **** 0.06
7226 C 77.59827013845928 15.737747924594856 77.27188642174843 C 0.0 **** -0.24
7227 H 77.65179498824803 16.058006637386455 76.23059623153782 H 0.0 **** 0.06
7228 H 78.59698678124305 15.757246749724985 77.70971705776111 H 0.0 **** 0.06
7229 H 77.19942308872008 14.724292462685966 77.31920243248305 H 0.0 **** 0.06
7230 H 76.94543830339218 16.41225444814914 77.8250249457418 H 0.0 **** 0.06
7231 C 74.50249885518775 13.776555133220995 96.75438792448988 C 0.0 **** -0.24
7232 H 74.18694653883168 13.433547101954616 95.76934075307177 H 0.0 **** 0.06
7233 H 75.5901952170446 13.857860028075606 96.7789639418563 H 0.0 **** 0.06
7234 H 74.1751591330501 13.061983625515325 97.50920907490806 H 0.0 **** 0.06
7235 H 74.05954931915329 14.75079686758869 96.95938413600577 H 0.0 **** 0.06
7236 C 61.3957216768205 81.29997604184234 40.09523396606875 C 0.0 **** -0.24
7237 H 60.39456465470009 80.99651170054888 39.790777578404686 H 0.0 **** 0.06
7238 H 61.73156689706576 80.6696835495454 40.91868651211894 H 0.0 **** 0.06
7239 H 61.37694780380231 82.34110618116682 40.41935796969466 H 0.0 **** 0.06
7240 H 62.07970103507567 81.19350228717605 39.253590169689176 H 0.0 **** 0.06
7241 C 36.3097582248154 74.94048614404336 13.980037759045615 C 0.0 **** -0.24
7242 H 35.890678560368215 75.0052576777094 14.985052039671245 H 0.0 **** 0.06
7243 H 36.62833551363282 73.91720074213376 13.784980956724553 H 0.0 **** 0.06
7244 H 37.16564935607013 75.61045605531154 13.900845587631238 H 0.0 **** 0.06
7245 H 35.5522849493657 75.23153521957282 13.252167294707817 H 0.0 **** 0.06
7246 C 68.19098464798098 72.56435415104522 1.8853371758264075 C 0.0 **** -0.24
7247 H 69.01121461465176 72.04724072829356 1.3877306785372383 H 0.0 **** 0.06
7248 H 68.43235312204868 73.62365960526665 1.976309558077972 H 0.0 **** 0.06
7249 H 68.04179419524965 72.13905529064357 2.877730149307709 H 0.0 **** 0.06
7250 H 67.27919897125642 72.4487293773185 1.2995150923307932 H 0.0 **** 0.06
7251 C 70.11410391456548 10.128551835689535 36.56638713131745 C 0.0 **** -0.24
7252 H 70.69727227510958 9.904440343122829 37.46032141339428 H 0.0 **** 0.06
7253 H 69.60575458202274 9.225286099243249 36.229021308633115 H 0.0 **** 0.06
7254 H 70.77812923206767 10.48789107303027 35.77985903196062 H 0.0 **** 0.06
7255 H 69.37571520908068 10.896599195755371 36.79875355462713 H 0.0 **** 0.06
7256 C 80.89011309653478 8.039190829482152 95.80152816941677 C 0.0 **** -0.24
7257 H 81.89230895467529 8.357985599007009 95.51522049677173 H 0.0 **** 0.06
7258 H 80.69730187363069 8.331159888136966 96.83398913610617 H 0.0 **** 0.06
7259 H 80.8134871550289 6.955503361352527 95.71062883544914 H 0.0 **** 0.06
7260 H 80.15793961364534 8.511463248813072 95.1477687296008 H 0.0 **** 0.06
7261 C 34.5271449843209 10.459514975990288 25.18189259249175 C 0.0 **** -0.24
7262 H 34.29583557117698 11.295623050340481 24.521897154012805 H 0.0 **** 0.06
7263 H 33.96844836877537 10.565141848674159 26.111423521684117 H 0.0 **** 0.06
7264 H 35.59499036073771 10.451166745722901 25.398050497461213 H 0.0 **** 0.06
7265 H 34.24787870034632 9.524539571335836 24.693471463854735 H 0.0 **** 0.06
7266 C 14.289607429399325 63.95433426392883 37.102237160125576 C 0.0 **** -0.24
7267 H 13.86221073006925 62.958192674953224 37.22135802669087 H 0.0 **** 0.06
7268 H 13.720440077400724 64.50700743592405 36.3545810650196 H 0.0 **** 0.06
7269 H 15.327437141662926 63.86767634452539 36.77787361244207 H 0.0 **** 0.06
7270 H 14.249495826434952 64.48254161029823 38.054142996678806 H 0.0 **** 0.06
7271 C 46.72190005153385 70.04385040422119 98.82096417656396 C 0.0 **** -0.24
7272 H 45.800407067037156 69.48473233401205 98.98485871911552 H 0.0 **** 0.06
7273 H 47.55176791181191 69.34856430084875 98.6973265411868 H 0.0 **** 0.06
7274 H 46.91253866613977 70.6887496778698 99.67966939558988 H 0.0 **** 0.06
7275 H 46.62194722107955 70.65398266238685 97.92331514316986 H 0.0 **** 0.06
7276 C 69.6768875227986 106.47216152766313 40.18094824313491 C 0.0 **** -0.24
7277 H 70.75591885166523 106.61380725152156 40.12711916038484 H 0.0 **** 0.06
7278 H 69.20347620802201 107.40143888663411 40.49712386800414 H 0.0 **** 0.06
7279 H 69.44878232585079 105.68463842882721 40.89961168998282 H 0.0 **** 0.06
7280 H 69.29885201147447 106.18698470227841 39.19868447443221 H 0.0 **** 0.06
7281 C 80.85816946052896 54.480048933061326 54.00413809807917 C 0.0 **** -0.24
7282 H 81.1813736148134 54.4108624342232 55.043319548676614 H 0.0 **** 0.06
7283 H 80.45055146417916 53.520888827617114 53.686060822402005 H 0.0 **** 0.06
7284 H 81.71078789435127 54.73951868776064 53.37621612209265 H 0.0 **** 0.06
7285 H 80.09229393820299 55.250192378242936 53.91294881766487 H 0.0 **** 0.06
7286 C 72.5210726165405 44.37013696131447 86.2305589442152 C 0.0 **** -0.24
7287 H 71.97270185802893 43.75571310750427 85.51699637829881 H 0.0 **** 0.06
7288 H 72.04225691605485 44.30739441922049 87.20790977473152 H 0.0 **** 0.06
7289 H 72.52186344192415 45.406863973588045 85.89284568393342 H 0.0 **** 0.06
7290 H 73.54826668001455 44.01210378426303 86.30465595652359 H 0.0 **** 0.06
7291 C 80.66330786139308 36.74510373640982 53.89419865742627 C 0.0 **** -0.24
7292 H 81.5599493087607 37.33739372958348 53.71013497742115 H 0.0 **** 0.06
7293 H 80.94983616845745 35.74378370156916 54.21609376711814 H 0.0 **** 0.06
7294 H 80.07745726523748 36.679978978737324 52.97794076752342 H 0.0 **** 0.06
7295 H 80.06838969508206 37.22104315338396 54.67365024214962 H 0.0 **** 0.06
7296 C 62.712254047867646 52.12957399821692 80.02803348793641 C 0.0 **** -0.24
7297 H 63.45049720594386 52.54134794260514 80.71719896937893 H 0.0 **** 0.06
7298 H 62.55899808531868 51.073570924166845 80.24895839803219 H 0.0 **** 0.06
7299 H 63.07026648055603 52.239654606071646 79.00458633682985 H 0.0 **** 0.06
7300 H 61.770003722418465 52.666582588443426 80.14345403228135 H 0.0 **** 0.06
7301 C 107.60633148439182 78.82899548206422 8.902735704392782 C 0.0 **** -0.24
7302 H 106.93270517552024 78.06191748295583 9.284563760707414 H 0.0 **** 0.06
7303 H 107.64049681777067 79.66382932809859 9.602887061291526 H 0.0 **** 0.06
7304 H 107.24586535381744 79.18011344518106 7.935526778074731 H 0.0 **** 0.06
7305 H 108.6059983401192 78.40972761084947 8.787083721138174 H 0.0 **** 0.06
7306 C 57.040443665433294 56.6087112916787 50.937711346976585 C 0.0 **** -0.24
7307 H 57.146284092023706 57.679141312343916 51.11050036634009 H 0.0 **** 0.06
7308 H 56.114534410475564 56.41912713545483 50.392996995547094 H 0.0 **** 0.06
7309 H 57.01353506405359 56.086630703943285 51.89403843869616 H 0.0 **** 0.06
7310 H 57.88697693787822 56.24991041232374 50.3513598032701 H 0.0 **** 0.06
7311 C 79.33064620710564 94.11520197408285 5.099148815206954 C 0.0 **** -0.24
7312 H 80.16136246651541 94.0574475750068 4.394728674624389 H 0.0 **** 0.06
7313 H 78.66602943980415 94.92928037580332 4.810844092877813 H 0.0 **** 0.06
7314 H 79.71843183521622 94.29932447881468 6.101335908308926 H 0.0 **** 0.06
7315 H 78.7809445813681 93.1740921801333 5.0894430078411315 H 0.0 **** 0.06
7316 C 23.874132374168994 16.392301129611695 3.42333055531509 C 0.0 **** -0.24
7317 H 23.567151643818022 17.434703077562574 3.3337215133200573 H 0.0 **** 0.06
7318 H 23.41866197769889 15.955205150869887 4.3126919125990355 H 0.0 **** 0.06
7319 H 24.95988943066368 16.34004490108967 3.5066411465830924 H 0.0 **** 0.06
7320 H 23.549791921963106 15.841153368099043 2.540826656573188 H 0.0 **** 0.06
7321 C 67.06370490374675 42.45894267085163 63.43424002119404 C 0.0 **** -0.24
7322 H 66.9610631832538 42.684644515696846 64.49587607399967 H 0.0 **** 0.06
7323 H 66.33731863300872 43.04162075358272 62.8669279252707 H 0.0 **** 0.06
7324 H 66.8844861585412 41.395611453849824 63.270538552279135 H 0.0 **** 0.06
7325 H 68.07096545983927 42.71191963292716 63.10468044503372 H 0.0 **** 0.06
7326 C 74.49202662509855 87.32808595532707 16.992988208941938 C 0.0 **** -0.24
7327 H 74.84937171921675 86.33925361367592 17.277496084923882 H 0.0 **** 0.06
7328 H 75.22286143152384 87.80449096391433 16.339275350460156 H 0.0 **** 0.06
7329 H 74.3528143075417 87.93568278184397 17.887614834672945 H 0.0 **** 0.06
7330 H 73.54181984971264 87.23358927493696 16.467457821357897 H 0.0 **** 0.06
7331 C 18.536565343370228 73.07402503330125 7.320715047940297 C 0.0 **** -0.24
7332 H 19.207564685239333 72.77969535123773 8.128750157407012 H 0.0 **** 0.06
7333 H 18.752351828726177 74.1003108788016 7.025110171609697 H 0.0 **** 0.06
7334 H 17.50427042565829 73.00348093203066 7.662841402032143 H 0.0 **** 0.06
7335 H 18.68369600864318 72.41085875928023 6.467672936925908 H 0.0 **** 0.06
7336 C 98.81005874931361 97.97196162380419 35.150960533503024 C 0.0 **** -0.24
7337 H 99.61033475701203 98.61195051730277 35.52304826280843 H 0.0 **** 0.06
7338 H 97.86257173615365 98.28450891273496 35.590387779511246 H 0.0 **** 0.06
7339 H 99.01573348214345 96.93758998457838 35.42413243000435 H 0.0 **** 0.06
7340 H 98.75323329961503 98.05699044058247 34.065215738161456 H 0.0 **** 0.06
7341 C 49.84633479195145 89.58226696706822 102.25554309115009 C 0.0 **** -0.24
7342 H 48.94519813523732 89.35150066102574 101.6876942097402 H 0.0 **** 0.06
7343 H 49.73356344840761 90.55449537765384 102.73731520679178 H 0.0 **** 0.06
7344 H 50.70341374063639 89.60775457250156 101.58269854595915 H 0.0 **** 0.06
7345 H 50.00223882487791 88.81621343446619 103.01504861711355 H 0.0 **** 0.06
7346 C 72.33800065930419 16.55153003313889 47.12469705280347 C 0.0 **** -0.24
7347 H 73.40894330220884 16.501227063028068 46.9293200470737 H 0.0 **** 0.06
7348 H 72.16972001801575 16.92356266424973 48.13610407165734 H 0.0 **** 0.06
7349 H 71.90380923806573 15.555825848240005 47.02630094252808 H 0.0 **** 0.06
7350 H 71.8685089713013 17.224651308686845 46.406584185420314 H 0.0 **** 0.06
7351 C 26.38688433784307 27.7887240116643 27.51055773066129 C 0.0 **** -0.24
7352 H 25.415873906465464 27.328582689726694 27.328927855500723 H 0.0 **** 0.06
7353 H 26.30115562430771 28.50950562838357 28.32403065962785 H 0.0 **** 0.06
7354 H 26.722048913087065 28.297720753587733 26.606224930902187 H 0.0 **** 0.06
7355 H 27.10808397631891 27.017926869466862 27.78233076021195 H 0.0 **** 0.06
7356 C 73.39351436791948 40.53143484593545 101.23806061142452 C 0.0 **** -0.24
7357 H 72.44220033473725 41.05685518393517 101.16224012821478 H 0.0 **** 0.06
7358 H 74.02995226383217 41.0355605426368 101.96490226391698 H 0.0 **** 0.06
7359 H 73.88507896859927 40.52627785390456 100.26526342019842 H 0.0 **** 0.06
7360 H 73.2166966393405 39.50460066617035 101.55990661029132 H 0.0 **** 0.06
7361 C 98.76691817115977 89.27029746443648 77.28475939658657 C 0.0 **** -0.24
7362 H 98.44569012305135 88.32619059634563 76.84449412723421 H 0.0 **** 0.06
7363 H 99.7425747270626 89.13911518876316 77.75319002041448 H 0.0 **** 0.06
7364 H 98.04160746419551 89.58675031534337 78.03413426080425 H 0.0 **** 0.06
7365 H 98.83782146975916 90.02863827238262 76.50528158902398 H 0.0 **** 0.06
7366 C 75.84555964792408 83.20243626970523 1.8762672056722636 C 0.0 **** -0.24
7367 H 75.27236548107503 84.12881455187531 1.834440467046278 H 0.0 **** 0.06
7368 H 75.60881968406487 82.58918051885458 1.0073988307343598 H 0.0 **** 0.06
7369 H 75.5897516901479 82.6588643770674 2.7861466771181824 H 0.0 **** 0.06
7370 H 76.91073658426063 83.43435128992769 1.878962408561506 H 0.0 **** 0.06
7371 C 45.96292840370278 31.148806328247844 95.67957672435222 C 0.0 **** -0.24
7372 H 45.609531782234086 31.054268161802952 96.7063873680608 H 0.0 **** 0.06
7373 H 47.045761194765966 31.02494594457437 95.65585963681366 H 0.0 **** 0.06
7374 H 45.70126604034174 32.1343643468814 95.29503295658044 H 0.0 **** 0.06
7375 H 45.49497144434996 30.381725867094588 95.06346835243527 H 0.0 **** 0.06
7376 C 104.73461901746902 102.77358620086741 60.92686793446779 C 0.0 **** -0.24
7377 H 104.78943726373251 103.82369908209397 61.21511724479632 H 0.0 **** 0.06
7378 H 104.04010000391574 102.66121687624204 60.094345138843664 H 0.0 **** 0.06
7379 H 104.38687924949346 102.18262833814327 61.7745233000237 H 0.0 **** 0.06
7380 H 105.72309928271358 102.42826427841433 60.625671628962095 H 0.0 **** 0.06
7381 C 47.42053021148778 95.95767373510608 92.39074262952626 C 0.0 **** -0.24
7382 H 46.992608602309275 95.48785902393882 93.2755487642705 H 0.0 **** 0.06
7383 H 46.62860889953903 96.17234819908629 91.6734691656156 H 0.0 **** 0.06
7384 H 48.148159285466036 95.282851639771 91.93797791279016 H 0.0 **** 0.06
7385 H 47.914771010750535 96.88634306781177 92.67644360229725 H 0.0 **** 0.06
7386 C 57.4953487808762 50.30091334564057 96.28468839414124 C 0.0 **** -0.24
7387 H 58.08875951349851 50.81373899756088 95.52774170874412 H 0.0 **** 0.06
7388 H 57.344640544298976 50.962744952540184 97.1384106893814 H 0.0 **** 0.06
7389 H 58.01835576071677 49.401108748347696 96.60851568577733 H 0.0 **** 0.06
7390 H 56.52794027119011 50.027262985504414 95.8632681757723 H 0.0 **** 0.06
7391 C 57.44781291157589 52.51874780714632 83.65010762948941 C 0.0 **** -0.24
7392 H 56.768952208050216 53.22265415471234 84.13263512555145 H 0.0 **** 0.06
7393 H 57.51585311674538 52.75117685597663 82.58721204926161 H 0.0 **** 0.06
7394 H 57.0687895771122 51.504559519391805 83.7780810110996 H 0.0 **** 0.06
7395 H 58.4354458742877 52.597906793760416 84.10460155132894 H 0.0 **** 0.06
7396 C 10.29056081174852 58.87065952092627 31.808827422570147 C 0.0 **** -0.24
7397 H 11.114961558361529 59.50871067751612 31.49187187788668 H 0.0 **** 0.06
7398 H 10.662575910416251 57.864114152609915 31.999087509887552 H 0.0 **** 0.06
7399 H 9.535477977999733 58.836479726258375 31.023390987239317 H 0.0 **** 0.06
7400 H 9.848626371471852 59.27399950048979 32.72051793846621 H 0.0 **** 0.06
7401 C 55.22310598484307 14.775603985704322 35.635890310738546 C 0.0 **** -0.24
7402 H 55.538886440401086 15.420651425659116 34.81626282812897 H 0.0 **** 0.06
7403 H 55.64678446827935 15.144031390780995 36.57137555160937 H 0.0 **** 0.06
7404 H 55.57195779627972 13.75968477531785 35.45319313941236 H 0.0 **** 0.06
7405 H 54.13449839034644 14.780479118955583 35.70267011926432 H 0.0 **** 0.06
7406 C 15.63917868368793 6.689513220150928 14.140011514171505 C 0.0 **** -0.24
7407 H 16.07446807132348 5.741090338188997 14.45694996978446 H 0.0 **** 0.06
7408 H 16.423186344258795 7.330944548613303 13.736633767294364 H 0.0 **** 0.06
7409 H 15.172133909680483 7.178195288499154 14.994985044633722 H 0.0 **** 0.06
7410 H 14.888473987449103 6.505277858366071 13.371836731543311 H 0.0 **** 0.06
7411 C 76.52037533664986 35.31773708566254 61.22510780117807 C 0.0 **** -0.24
7412 H 77.22343939147095 34.48476257322682 61.22714019102273 H 0.0 **** 0.06
7413 H 76.09343521400126 35.4366471992239 62.22116616836064 H 0.0 **** 0.06
7414 H 75.72392413167512 35.11825844486913 60.50906351584547 H 0.0 **** 0.06
7415 H 77.04205015454068 36.23229001474539 60.94198223416208 H 0.0 **** 0.06
7416 C 13.222223272643916 11.72713953851223 39.33520990910962 C 0.0 **** -0.24
7417 H 13.736643743105674 11.852841910309888 38.38147235468054 H 0.0 **** 0.06
7418 H 13.226634352204726 12.672033558100999 39.87741513037258 H 0.0 **** 0.06
7419 H 13.734381705534602 10.966776796284883 39.92547002969866 H 0.0 **** 0.06
7420 H 12.193441909703225 11.415985742038718 39.15418519334895 H 0.0 **** 0.06
7421 C 96.06655287260833 57.84475074188413 55.75692104301917 C 0.0 **** -0.24
7422 H 96.177795326917 57.00395159927777 55.072189231565304 H 0.0 **** 0.06
7423 H 96.53313984935677 58.729883482832975 55.32426602057747 H 0.0 **** 0.06
7424 H 96.54879901376461 57.606267234071254 56.705825198201616 H 0.0 **** 0.06
7425 H 95.0070972481436 58.03725116595891 55.92634979986233 H 0.0 **** 0.06
7426 C 69.1210391265916 48.924899256519886 43.95976670156972 C 0.0 **** -0.24
7427 H 68.19310941352842 48.35643499304459 43.88669390867261 H 0.0 **** 0.06
7428 H 69.15723905509134 49.43735403072328 44.92109099620595 H 0.0 **** 0.06
7429 H 69.16036522740299 49.659204382718556 43.15453926570632 H 0.0 **** 0.06
7430 H 69.97031476144693 48.24738841316197 43.874845239309934 H 0.0 **** 0.06
7431 C 47.70346919625445 36.755072678609395 99.3897623049495 C 0.0 **** -0.24
7432 H 47.50673634255574 36.60422884297222 98.32778155581047 H 0.0 **** 0.06
7433 H 48.474874677862374 36.058937335144805 99.71856753952002 H 0.0 **** 0.06
7434 H 46.78871589915136 36.579028691405966 99.95675852140187 H 0.0 **** 0.06
7435 H 48.04129795443654 37.7785733619192 99.55401771980453 H 0.0 **** 0.06
7436 C 2.5463478937242385 56.71472901849472 51.731135597490265 C 0.0 **** -0.24
7437 H 2.8789294040796136 56.63797262048618 52.76656437431254 H 0.0 **** 0.06
7438 H 1.897894286533222 55.87111545313033 51.495759776613056 H 0.0 **** 0.06
7439 H 3.4131744201178353 56.70348708932892 51.0698102900009 H 0.0 **** 0.06
7440 H 1.9972297634738085 57.645958052691185 51.59452498152427 H 0.0 **** 0.06
7441 C 34.83141639941854 47.42985174835194 47.909533934452114 C 0.0 **** -0.24
7442 H 35.690291650643786 48.006973247604094 48.25250597843077 H 0.0 **** 0.06
7443 H 34.278612954777316 48.00681305298871 47.16879869890681 H 0.0 **** 0.06
7444 H 34.18213094563899 47.20629266717668 48.75584206550771 H 0.0 **** 0.06
7445 H 35.17689985582422 46.49736815564171 47.46090338980629 H 0.0 **** 0.06
7446 C 42.61711754286891 18.092933572995946 7.638957658946126 C 0.0 **** -0.24
7447 H 43.239566616957404 18.931123804002937 7.328680481490807 H 0.0 **** 0.06
7448 H 42.61033922404573 18.02874898541853 8.727641814275927 H 0.0 **** 0.06
7449 H 43.01866349532658 17.168523475861434 7.222779096104631 H 0.0 **** 0.06
7450 H 41.59927368036702 18.241948768294662 7.277551915655877 H 0.0 **** 0.06
7451 C 109.6527286239911 68.00383765348667 70.26730680301758 C 0.0 **** -0.24
7452 H 108.80724357367012 68.27462128625254 69.63491057812948 H 0.0 **** 0.06
7453 H 110.58308139344308 68.25640115635889 69.759077415824 H 0.0 **** 0.06
7454 H 109.6269736571218 66.93287508503286 70.46819379678118 H 0.0 **** 0.06
7455 H 109.59125789995002 68.55073129283312 71.2084308402239 H 0.0 **** 0.06
7456 C 39.314160678140865 49.49083475903899 79.99666230317757 C 0.0 **** -0.24
7457 H 39.06660239629542 50.21258112537765 80.77471036362304 H 0.0 **** 0.06
7458 H 39.84007794819439 48.64418803634413 80.43995811266326 H 0.0 **** 0.06
7459 H 39.95427945063213 49.965478842271466 79.25177924322861 H 0.0 **** 0.06
7460 H 38.398396096064516 49.14188732118171 79.52027211739363 H 0.0 **** 0.06
7461 C 104.12327681934899 85.01838119747393 77.57885012122341 C 0.0 **** -0.24
7462 H 104.84320334947405 85.00444689558117 76.759893826726 H 0.0 **** 0.06
7463 H 104.09716121257011 86.01510104519394 78.02135474780891 H 0.0 **** 0.06
7464 H 104.42112735150552 84.29261606722753 78.33551369397352 H 0.0 **** 0.06
7465 H 103.13498179580466 84.76296467664912 77.19832941002574 H 0.0 **** 0.06
7466 C 3.0592123411645673 20.715201860716178 72.91165272287225 C 0.0 **** -0.24
7467 H 2.789870341727891 19.71680355917303 72.56644051078536 H 0.0 **** 0.06
7468 H 3.6871135198645106 20.635132752062162 73.79987333456609 H 0.0 **** 0.06
7469 H 2.153530474404832 21.27088740267598 73.1559040212122 H 0.0 **** 0.06
7470 H 3.605079423946165 21.235458079594167 72.12582307908116 H 0.0 **** 0.06
7471 C 31.435174962031454 100.57496913315288 58.21107924765306 C 0.0 **** -0.24
7472 H 30.7487650453038 99.78731214647145 58.521001180981955 H 0.0 **** 0.06
7473 H 30.905768018203474 101.52709720470162 58.179249365234 H 0.0 **** 0.06
7474 H 31.828772581509412 100.34396434939228 57.22086186176648 H 0.0 **** 0.06
7475 H 32.25844620694656 100.64056285437591 58.923303731309886 H 0.0 **** 0.06
7476 C 2.236442969111579 31.78186276294258 18.63457897919929 C 0.0 **** -0.24
7477 H 1.2819531674526843 32.14501724205351 18.253147739439797 H 0.0 **** 0.06
7478 H 2.353321446899457 30.72913080741631 18.37722788701592 H 0.0 **** 0.06
7479 H 2.261074600424209 31.896619177662217 19.71830126198222 H 0.0 **** 0.06
7480 H 3.0479519745844783 32.35796463336604 18.18919539606928 H 0.0 **** 0.06
7481 C 45.7788546065384 108.55258164627733 51.05065292674949 C 0.0 **** -0.24
7482 H 46.756085900573794 108.87187197340559 51.41207150541143 H 0.0 **** 0.06
7483 H 45.12238528315865 109.41817424785225 50.96745341843433 H 0.0 **** 0.06
7484 H 45.34978681373582 107.83569150522091 51.75122206900581 H 0.0 **** 0.06
7485 H 45.888954993439086 108.08318901519081 50.07277040578984 H 0.0 **** 0.06
7486 C 95.88363248837668 100.19684585127698 13.377657905237925 C 0.0 **** -0.24
7487 H 95.07512791447905 100.28581883367798 14.103956703676317 H 0.0 **** 0.06
7488 H 96.23283213631008 101.19241937249728 13.101202170045042 H 0.0 **** 0.06
7489 H 95.51957024168418 99.67968407025785 12.490716513610323 H 0.0 **** 0.06
7490 H 96.70535349467849 99.63223064644427 13.817329317834151 H 0.0 **** 0.06
7491 C 99.02334851936001 87.17703002850178 8.91802421030185 C 0.0 **** -0.24
7492 H 99.15142716562784 86.53089845447357 9.786661992836574 H 0.0 **** 0.06
7493 H 98.34952269603059 86.6998668938185 8.20708765409904 H 0.0 **** 0.06
7494 H 99.99074499818227 87.34642184172719 8.445224889802057 H 0.0 **** 0.06
7495 H 98.60174577616664 88.13114706976506 9.23484047929143 H 0.0 **** 0.06
7496 C 94.82540160944981 104.66715855038518 46.321466720580815 C 0.0 **** -0.24
7497 H 95.3705638862376 104.26321135621914 45.468046825010845 H 0.0 **** 0.06
7498 H 95.53044076174331 105.09653725849516 47.033326576855316 H 0.0 **** 0.06
7499 H 94.26242545544882 103.86827164821361 46.803674433548 H 0.0 **** 0.06
7500 H 94.13733680425412 105.44054731932096 45.978747573413386 H 0.0 **** 0.06
7501 C 98.22681693997222 28.984488509806837 30.852885585048 C 0.0 **** -0.24
7502 H 99.04890077809239 28.44769319435172 30.38053758519021 H 0.0 **** 0.06
7503 H 98.62584571697042 29.695586702118966 31.576006675893552 H 0.0 **** 0.06
7504 H 97.57449874361558 28.275381925189166 31.362511479690397 H 0.0 **** 0.06
7505 H 97.65822922720668 29.520177190681125 30.092069291980977 H 0.0 **** 0.06
7506 C 47.83274432715147 12.246576369817234 42.45901964479884 C 0.0 **** -0.24
7507 H 48.32222870183987 11.801605827621131 43.32603870819662 H 0.0 **** 0.06
7508 H 47.883865981212935 11.554470252513823 41.61768172243774 H 0.0 **** 0.06
7509 H 48.33533741228202 13.176774800010662 42.19611139639096 H 0.0 **** 0.06
7510 H 46.78948540210144 12.451951686439799 42.69790142055882 H 0.0 **** 0.06
7511 C 49.07872260622827 9.520494821741693 33.737457897992584 C 0.0 **** -0.24
7512 H 50.078631835593 9.925920977814116 33.88920391013712 H 0.0 **** 0.06
7513 H 48.34291325554125 10.19304055053459 34.1788336972745 H 0.0 **** 0.06
7514 H 49.00788044011989 8.541814814686163 34.21206885697027 H 0.0 **** 0.06
7515 H 48.88650736445686 9.420721901116735 32.668899323133 H 0.0 **** 0.06
7516 C 67.15258351458156 23.848643761607377 7.005257003232925 C 0.0 **** -0.24
7517 H 66.26889204208754 23.857626061210993 7.644833057639872 H 0.0 **** 0.06
7518 H 67.00157322020377 24.530937642128123 6.168421470086997 H 0.0 **** 0.06
7519 H 67.31496699244069 22.839215589526106 6.626829831456666 H 0.0 **** 0.06
7520 H 68.02166943111268 24.16568086659285 7.581499889768731 H 0.0 **** 0.06
7521 C 67.49838237620207 18.01747389975165 90.76636253711169 C 0.0 **** -0.24
7522 H 67.0572046829091 19.003117747413427 90.6193313752645 H 0.0 **** 0.06
7523 H 66.85026056322208 17.259701668976902 90.32674330914676 H 0.0 **** 0.06
7524 H 67.61045804941189 17.824542553441432 91.83398013985777 H 0.0 **** 0.06
7525 H 68.47642275715569 17.981959922071695 90.28639742709532 H 0.0 **** 0.06
7526 C 18.543888458430615 26.03372490191667 20.34239123025813 C 0.0 **** -0.24
7527 H 19.236574845522995 25.195972043899474 20.427546909379018 H 0.0 **** 0.06
7528 H 18.599740623882752 26.643401851646047 21.243689869565827 H 0.0 **** 0.06
7529 H 17.529482924791353 25.655634786801272 20.219708894041474 H 0.0 **** 0.06
7530 H 18.813029379275008 26.63947964267126 19.47685491559872 H 0.0 **** 0.06
7531 C 68.5007108522156 11.929340044072347 15.034848424067746 C 0.0 **** -0.24
7532 H 68.91883516625921 12.934379074519356 15.090609826144913 H 0.0 **** 0.06
7533 H 68.34303670456035 11.545320838503443 16.04319454248926 H 0.0 **** 0.06
7534 H 69.19303407123701 11.276861448700075 14.501869976841164 H 0.0 **** 0.06
7535 H 67.54968144680345 11.960359064323896 14.504594196268272 H 0.0 **** 0.06
7536 C 75.42889375933618 4.702853525844503 8.70701264556115 C 0.0 **** -0.24
7537 H 74.87762361632099 4.180198856181079 9.488065785635158 H 0.0 **** 0.06
7538 H 75.90635084538667 3.9744192565163843 8.050870870963621 H 0.0 **** 0.06
7539 H 76.18980732872632 5.337237214108853 9.159924922166908 H 0.0 **** 0.06
7540 H 74.74074695588087 5.317335468718511 8.127198355331942 H 0.0 **** 0.06
7541 C 67.43732513340575 18.616336100892568 24.717398928189 C 0.0 **** -0.24
7542 H 67.7353731319663 17.703959270738352 24.200058921550976 H 0.0 **** 0.06
7543 H 67.74993669282895 18.562234795030633 25.759601274119007 H 0.0 **** 0.06
7544 H 66.35371132130581 18.723890750021553 24.666744727569494 H 0.0 **** 0.06
7545 H 67.91021100679848 19.474243411446082 24.239731979989585 H 0.0 **** 0.06
7546 C 82.13668587127967 87.35108430662031 6.672945512077405 C 0.0 **** -0.24
7547 H 81.1742174126673 87.59886130661631 7.121804969037669 H 0.0 **** 0.06
7548 H 82.20629602446758 86.27042473935029 6.5402120651159805 H 0.0 **** 0.06
7549 H 82.94088117344728 87.68993095397333 7.326105982797657 H 0.0 **** 0.06
7550 H 82.2227004784124 87.84248802508958 5.703900314122251 H 0.0 **** 0.06
7551 C 74.35933912381086 1.712440688576521 25.37625693956677 C 0.0 **** -0.24
7552 H 74.45927248709437 1.687101635897477 24.291941072314323 H 0.0 **** 0.06
7553 H 74.05854220815527 2.712117123260498 25.690325390331868 H 0.0 **** 0.06
7554 H 75.31428505465638 1.4582530259082205 25.835800858626676 H 0.0 **** 0.06
7555 H 73.60361729364531 0.9905727341483157 25.687560576964007 H 0.0 **** 0.06
7556 C 50.942378945486325 89.59340044969557 63.79383421241744 C 0.0 **** -0.24
7557 H 50.008582024429245 90.12571421355108 63.61259927441779 H 0.0 **** 0.06
7558 H 51.76568718457605 90.3067652043868 63.827045479043704 H 0.0 **** 0.06
7559 H 51.1138076625636 88.87740587761297 62.99027234071349 H 0.0 **** 0.06
7560 H 50.88025428676684 89.06480804898382 64.74423426155357 H 0.0 **** 0.06
7561 C 45.427160747069706 41.77246267015445 61.993072429817076 C 0.0 **** -0.24
7562 H 44.58745938644523 42.43245404887488 61.77895176771166 H 0.0 **** 0.06
7563 H 45.94228924435515 41.52653248867912 61.06299401979388 H 0.0 **** 0.06
7564 H 45.06117134812342 40.85757964053904 62.45923392755287 H 0.0 **** 0.06
7565 H 46.11943599950422 42.27337572310847 62.66967557228698 H 0.0 **** 0.06
7566 C 62.154464547483144 29.54722751168009 110.19338331637448 C 0.0 **** -0.24
7567 H 62.027781467808765 28.692130577520032 110.85809785035275 H 0.0 **** 0.06
7568 H 62.34302037778309 29.19450968648863 109.17932090426774 H 0.0 **** 0.06
7569 H 62.998038042524456 30.147836385981805 110.5320135214917 H 0.0 **** 0.06
7570 H 61.24873144072879 30.15278403448417 110.20519530013223 H 0.0 **** 0.06
7571 C 14.171175655973045 9.025459728429848 45.51180228050051 C 0.0 **** -0.24
7572 H 13.589515907703174 9.718135735335842 44.903624170266596 H 0.0 **** 0.06
7573 H 14.610353628840656 9.560899182635538 46.35363601620207 H 0.0 **** 0.06
7574 H 14.963169545440408 8.587784527774117 44.90501420018149 H 0.0 **** 0.06
7575 H 13.518893809627286 8.234956427797314 45.884364637774404 H 0.0 **** 0.06
7576 C 71.13005071763428 23.249453897216824 101.60954527528213 C 0.0 **** -0.24
7577 H 70.22296024504067 23.18073823595242 101.00981390252055 H 0.0 **** 0.06
7578 H 71.2509348795246 24.272215152220525 101.96910508765086 H 0.0 **** 0.06
7579 H 71.99046147927191 22.974272130195146 100.99955015291826 H 0.0 **** 0.06
7580 H 71.05532322769835 22.571901144694095 102.45979922322952 H 0.0 **** 0.06
7581 C 46.55273016574682 59.30905306447784 54.63000782360518 C 0.0 **** -0.24
7582 H 45.57203292148773 58.83767854234165 54.56629202763483 H 0.0 **** 0.06
7583 H 46.9963330054909 59.361168663846854 53.63571550372504 H 0.0 **** 0.06
7584 H 47.19570582334893 58.720968071591784 55.28542914891642 H 0.0 **** 0.06
7585 H 46.44554853347262 60.31563972619006 55.034527457154894 H 0.0 **** 0.06
7586 C 101.88281790499329 34.50277537748411 87.97817370730542 C 0.0 **** -0.24
7587 H 102.74675261770838 35.08645539206796 87.66065178109355 H 0.0 **** 0.06
7588 H 101.57956073370777 33.83493914269201 87.17073598524075 H 0.0 **** 0.06
7589 H 101.06044365677057 35.17496906991556 88.22290409812666 H 0.0 **** 0.06
7590 H 102.14508819111364 33.91372790828461 88.85711802752628 H 0.0 **** 0.06
7591 C 23.578903104384324 35.18816048248044 107.45592277379146 C 0.0 **** -0.24
7592 H 23.5264050149338 35.71267735313188 108.41059486075392 H 0.0 **** 0.06
7593 H 24.58992884534851 35.26525469332523 107.0552530928704 H 0.0 **** 0.06
7594 H 22.87407911772928 35.63681569027909 106.75587607127505 H 0.0 **** 0.06
7595 H 23.326169025988207 34.13872194038129 107.60380418432334 H 0.0 **** 0.06
7596 C 99.23414791011615 47.14472791617023 8.249273929763945 C 0.0 **** -0.24
7597 H 98.77419264957466 46.875193132502645 9.199939951037095 H 0.0 **** 0.06
7598 H 98.48601201733277 47.601811419480136 7.601254553661761 H 0.0 **** 0.06
7599 H 99.63135933691449 46.25069216031153 7.771479262775415 H 0.0 **** 0.06
7600 H 100.04329195220367 47.85316889716165 8.425895027221713 H 0.0 **** 0.06
7601 C 89.42584037886078 56.651909063586515 47.69012489405695 C 0.0 **** -0.24
7602 H 90.4754683420669 56.80448154650003 47.437009196252426 H 0.0 **** 0.06
7603 H 88.79712152641207 57.103035172095076 46.92268333028812 H 0.0 **** 0.06
7604 H 89.2144328625526 57.11653666270939 48.652941471647964 H 0.0 **** 0.06
7605 H 89.21896033843421 55.58369872345202 47.748921246267024 H 0.0 **** 0.06
7606 C 40.17209970680632 68.1498010061448 77.41602367358075 C 0.0 **** -0.24
7607 H 39.670175335904474 67.54159714796396 76.66487946521147 H 0.0 **** 0.06
7608 H 41.242964766350894 68.17392569367621 77.20774528591659 H 0.0 **** 0.06
7609 H 40.004180960902886 67.72034290343771 78.4039132359382 H 0.0 **** 0.06
7610 H 39.77339540629481 69.16378598002072 77.38911507209468 H 0.0 **** 0.06
7611 C 42.919978238401995 22.812653109499934 2.1850454481706976 C 0.0 **** -0.24
7612 H 43.8147675756839 23.367896864427337 2.465855225353451 H 0.0 **** 0.06
7613 H 42.23143504781865 22.78161251202404 3.0307863067814225 H 0.0 **** 0.06
7614 H 43.19729109960525 21.796294340261568 1.9046079638395526 H 0.0 **** 0.06
7615 H 42.43723603794882 23.304119388308365 1.3411363718662699 H 0.0 **** 0.06
7616 C 62.375514635672516 102.9090897015887 3.97689948575308 C 0.0 **** -0.24
7617 H 61.516505747097 103.29145603777637 3.4258446527740887 H 0.0 **** 0.06
7618 H 63.26909828317038 102.99060876977497 3.3583870624918575 H 0.0 **** 0.06
7619 H 62.20528740416681 101.86362149655884 4.234755399439678 H 0.0 **** 0.06
7620 H 62.51047787747058 103.49008674522014 4.889698003631992 H 0.0 **** 0.06
7621 C 70.53237596590051 28.139645690012628 48.54691980586051 C 0.0 **** -0.24
7622 H 69.73037436811373 28.05385804666102 47.813061713296634 H 0.0 **** 0.06
7623 H 70.52689467950907 27.26150615539865 49.19469274376621 H 0.0 **** 0.06
7624 H 70.3811890903022 29.035478592299853 49.14739508688672 H 0.0 **** 0.06
7625 H 71.49080596496412 28.20408920282935 48.03174536500734 H 0.0 **** 0.06
7626 C 4.8339291583594814 13.885112210837065 100.95683559346281 C 0.0 **** -0.24
7627 H 5.1392987494705284 14.55135629740073 101.76377857229755 H 0.0 **** 0.06
7628 H 3.8071354415805896 13.558860736637257 101.12464027406966 H 0.0 **** 0.06
7629 H 5.492537324970616 13.017305993247192 100.93356871283467 H 0.0 **** 0.06
7630 H 4.897182089021554 14.41422281737124 100.00571110663248 H 0.0 **** 0.06
7631 C 106.50940652095979 7.046413278917825 60.65708456465171 C 0.0 **** -0.24
7632 H 107.32612182173833 6.641717812118856 61.25409409906251 H 0.0 **** 0.06
7633 H 106.39258538358708 8.108887602342307 60.87198429657781 H 0.0 **** 0.06
7634 H 105.58569789494861 6.521861958144029 60.90175991219394 H 0.0 **** 0.06
7635 H 106.7331393562147 6.9121811267416575 59.5976742587315 H 0.0 **** 0.06
7636 C 82.1922203279334 23.941345683941876 69.46154339878056 C 0.0 **** -0.24
7637 H 81.63623505826911 24.095055522754166 68.53713420598022 H 0.0 **** 0.06
7638 H 81.5666543160284 23.409804981017317 70.17790945373098 H 0.0 **** 0.06
7639 H 82.47962458165887 24.907551765541058 69.87696410859085 H 0.0 **** 0.06
7640 H 83.08702842890995 23.355011468115748 69.25353531439255 H 0.0 **** 0.06
7641 C 36.7932653660595 62.29825691256805 55.87362505753981 C 0.0 **** -0.24
7642 H 36.04316978129225 63.04657771993057 56.12797575148301 H 0.0 **** 0.06
7643 H 37.11897642672449 61.78723923493888 56.78016739925249 H 0.0 **** 0.06
7644 H 37.64790914849121 62.785017775453824 55.40374358182544 H 0.0 **** 0.06
7645 H 36.36326538324775 61.573433362637616 55.18144904517243 H 0.0 **** 0.06
7646 C 54.85560841262334 4.905334294457305 10.630557833350537 C 0.0 **** -0.24
7647 H 54.72907234443383 3.8801862853183593 10.977327019765298 H 0.0 **** 0.06
7648 H 53.967124418372926 5.2144461178237975 10.07852261295902 H 0.0 **** 0.06
7649 H 55.72706582467869 4.963318298523177 9.978011595997572 H 0.0 **** 0.06
7650 H 54.99851809089455 5.56328507072169 11.487119726773315 H 0.0 **** 0.06
7651 C 17.53951893723783 95.84882636020637 8.076871295438806 C 0.0 **** -0.24
7652 H 16.823301631277573 96.5380889362225 8.525124179294622 H 0.0 **** 0.06
7653 H 17.868876517509975 95.12971895621547 8.826056716877133 H 0.0 **** 0.06
7654 H 18.398042441016088 96.40843672833176 7.706727651159554 H 0.0 **** 0.06
7655 H 17.065757300382415 95.32188718329064 7.248794769299181 H 0.0 **** 0.06
7656 C 15.419507803819613 96.83286512310734 30.319132906477364 C 0.0 **** -0.24
7657 H 14.413527688818036 96.41623706477509 30.262618886003565 H 0.0 **** 0.06
7658 H 15.478713658445955 97.7241489395663 29.69330814682729 H 0.0 **** 0.06
7659 H 16.139297425230183 96.09369508457927 29.96737689469802 H 0.0 **** 0.06
7660 H 15.645142420505607 97.09757782214409 31.35176541557547 H 0.0 **** 0.06
7661 C 110.34352853037444 91.08957639009748 90.6500165316667 C 0.0 **** -0.24
7662 H 110.32337873295802 90.26059874126662 89.94266176349183 H 0.0 **** 0.06
7663 H 110.41975667044267 90.69796184464678 91.6653254240153 H 0.0 **** 0.06
7664 H 109.42746910936248 91.67253480972732 90.55228029053762 H 0.0 **** 0.06
7665 H 111.20368949651697 91.72501855349401 90.44020452037444 H 0.0 **** 0.06
7666 C 79.48673355384058 45.296715066581584 3.7592492109683064 C 0.0 **** -0.24
7667 H 78.68942089810054 45.28955786062217 4.5025392230310075 H 0.0 **** 0.06
7668 H 79.20683093206833 45.950827259132495 2.9329819811602675 H 0.0 **** 0.06
7669 H 79.64198878326212 44.284555419453724 3.384552750085362 H 0.0 **** 0.06
7670 H 80.4068357658263 45.66083548798057 4.215751065307259 H 0.0 **** 0.06
7671 C 35.25500066748069 80.10019557739167 60.628408466837925 C 0.0 **** -0.24
7672 H 34.320753455236286 80.58242192952287 60.33739520020032 H 0.0 **** 0.06
7673 H 35.213318413357115 79.04289670828362 60.36807332289402 H 0.0 **** 0.06
7674 H 35.39768806199635 80.20551960498265 61.703739519452284 H 0.0 **** 0.06
7675 H 36.08554977302026 80.57309638899059 60.10352487969044 H 0.0 **** 0.06
7676 C 11.513864126131224 28.36754578291672 13.153071024416597 C 0.0 **** -0.24
7677 H 11.708819282921965 27.78013279892059 12.256452851107714 H 0.0 **** 0.06
7678 H 10.453610602259758 28.312578571897006 13.399760704380824 H 0.0 **** 0.06
7679 H 11.79258206337775 29.40589341393658 12.974635547025414 H 0.0 **** 0.06
7680 H 12.10097907528744 27.970815518840652 13.981798908197408 H 0.0 **** 0.06
7681 C 103.8409452939267 103.71522274306687 11.595372202096012 C 0.0 **** -0.24
7682 H 102.92609761956216 103.85529126769245 11.019779237102707 H 0.0 **** 0.06
7683 H 103.73025666209189 102.84909079384056 12.248016223813938 H 0.0 **** 0.06
7684 H 104.03051663439557 104.60341947156905 12.196915998425606 H 0.0 **** 0.06
7685 H 104.67638635552717 103.55248946690972 10.913884943425217 H 0.0 **** 0.06
7686 C 38.322394186302546 48.20420315389856 99.94169814279621 C 0.0 **** -0.24
7687 H 38.74170252766078 48.133761138852634 100.94564246320951 H 0.0 **** 0.06
7688 H 38.967556723800556 47.67256398306466 99.2409514585775 H 0.0 **** 0.06
7689 H 38.253581835450916 49.25225969872278 99.65015899700292 H 0.0 **** 0.06
7690 H 37.32837937402138 47.75824310929198 99.93155563903007 H 0.0 **** 0.06
7691 C 4.098220572112098 50.35820088187374 92.66504403260669 C 0.0 **** -0.24
7692 H 4.575886414160294 51.3357938656771 92.73472949465646 H 0.0 **** 0.06
7693 H 4.638945120135105 49.73978242702962 91.94793570171406 H 0.0 **** 0.06
7694 H 3.0667275777741736 50.48113233883824 92.33447512218468 H 0.0 **** 0.06
7695 H 4.111421309085358 49.87713386433077 93.6420813406929 H 0.0 **** 0.06
7696 C 3.036430392658973 77.47344092416319 29.804463279770033 C 0.0 **** -0.24
7697 H 3.5897376448268794 76.9981979357982 30.614370009592903 H 0.0 **** 0.06
7698 H 3.7321170405041197 77.99618386399817 29.14701540519016 H 0.0 **** 0.06
7699 H 2.3248962095345 78.18678564370106 30.22082630539586 H 0.0 **** 0.06
7700 H 2.499301458543913 76.7145453558501 29.236686306949565 H 0.0 **** 0.06
7701 C 17.460446906633194 32.19297317777049 52.25236052110259 C 0.0 **** -0.24
7702 H 18.390610601516414 32.57974169310506 52.66743436595385 H 0.0 **** 0.06
7703 H 17.01243329464738 32.94403142577485 51.601494129346776 H 0.0 **** 0.06
7704 H 16.77030021874728 31.95784746757606 53.06297214840092 H 0.0 **** 0.06
7705 H 17.66630440413249 31.28962918345688 51.677436097512185 H 0.0 **** 0.06
7706 C 110.51798365600237 3.9546095845282707 109.44291474485492 C 0.0 **** -0.24
7707 H 111.14081394666384 3.0855525921954836 109.65092200806012 H 0.0 **** 0.06
7708 H 110.07213568190227 4.312368182971312 110.37119170755344 H 0.0 **** 0.06
7709 H 109.72972643955544 3.6775688129762614 108.7426235741097 H 0.0 **** 0.06
7710 H 111.13048599068289 4.744228453551244 109.00555933366527 H 0.0 **** 0.06
7711 C 28.16859909393115 104.10180485196503 28.05083774105435 C 0.0 **** -0.24
7712 H 28.61715352822634 103.26714542124574 28.588920680927743 H 0.0 **** 0.06
7713 H 27.30617668688263 103.74838971126633 27.4857784033714 H 0.0 **** 0.06
7714 H 28.902465911288687 104.52806662780205 27.36553692036742 H 0.0 **** 0.06
7715 H 27.850102796417985 104.86388053233725 28.762294353276502 H 0.0 **** 0.06
7716 C 54.946332227525545 36.82294175428592 26.983805574868654 C 0.0 **** -0.24
7717 H 54.49476690680285 36.52865272685585 26.036748856601548 H 0.0 **** 0.06
7718 H 55.14940042812162 35.934038965870286 27.581504409479464 H 0.0 **** 0.06
7719 H 54.26068709468677 37.47581056448797 27.525412332410212 H 0.0 **** 0.06
7720 H 55.8783379615532 37.35395192330094 26.792538227852617 H 0.0 **** 0.06
7721 C 103.59092945891541 40.25297319562296 58.208848652740244 C 0.0 **** -0.24
7722 H 104.319590008705 39.648428310571916 57.669660402896966 H 0.0 **** 0.06
7723 H 103.66921720576144 41.29123180734277 57.88503256432119 H 0.0 **** 0.06
7724 H 103.78804010184179 40.18963156010898 59.2790434795935 H 0.0 **** 0.06
7725 H 102.58687051935334 39.88260110446811 58.00165816414926 H 0.0 **** 0.06
7726 C 0.41599362663538386 15.402026140047383 55.14050751731662 C 0.0 **** -0.24
7727 H 1.3010658004896811 14.930774857696747 55.56724300815384 H 0.0 **** 0.06
7728 H -0.3190323863861977 14.636158491724473 54.8915150014102 H 0.0 **** 0.06
7729 H 0.6932405349961357 15.946838858503497 54.238584051802434 H 0.0 **** 0.06
7730 H -0.011406059882631325 16.09481918469453 55.86601153632313 H 0.0 **** 0.06
7731 C 65.0964073809115 56.447537798309384 61.985304484967415 C 0.0 **** -0.24
7732 H 64.01942164221524 56.351085473527576 61.854903932407325 H 0.0 **** 0.06
7733 H 65.60289754377618 56.105820348417126 61.082352848720774 H 0.0 **** 0.06
7734 H 65.41595821203668 55.84124528371453 62.832713105342464 H 0.0 **** 0.06
7735 H 65.34851761109528 57.49203998469778 62.16996734943092 H 0.0 **** 0.06
7736 C 110.71443727310225 65.26912863614939 27.079656540652962 C 0.0 **** -0.24
7737 H 110.87425035560297 64.90207418377014 28.093425515378044 H 0.0 **** 0.06
7738 H 111.24039282656575 66.21456018143522 26.94896739439251 H 0.0 **** 0.06
7739 H 109.64764835902183 65.41943787558682 26.912048938345173 H 0.0 **** 0.06
7740 H 111.0957794815202 64.53879035958573 26.365964129891392 H 0.0 **** 0.06
7741 C 105.0127260025684 4.665951970760489 103.19049104875627 C 0.0 **** -0.24
7742 H 105.08239577245308 5.69889658875266 102.84902906359441 H 0.0 **** 0.06
7743 H 105.63065336752427 4.030479924986125 102.55421917051609 H 0.0 **** 0.06
7744 H 103.97541353921588 4.334424340968212 103.13671324754685 H 0.0 **** 0.06
7745 H 105.36351771418671 4.598951874218685 104.22068808402497 H 0.0 **** 0.06
7746 C 9.06389559864067 50.74372145598934 102.58590572586638 C 0.0 **** -0.24
7747 H 8.243616265029516 50.11547715307927 102.93467455633709 H 0.0 **** 0.06
7748 H 9.814425284798745 50.123404230304246 102.09619820968715 H 0.0 **** 0.06
7749 H 9.513585615537863 51.25784385594648 103.43437888115852 H 0.0 **** 0.06
7750 H 8.681132449360916 51.47851622300758 101.87741947487882 H 0.0 **** 0.06
7751 C 50.70565470254381 49.88488458614944 41.61968855716924 C 0.0 **** -0.24
7752 H 51.3989549921912 49.40206178027597 42.308500277043834 H 0.0 **** 0.06
7753 H 49.79388333791625 49.291193109671156 41.5474100171262 H 0.0 **** 0.06
7754 H 51.16792853875846 49.96453889086189 40.63622743419802 H 0.0 **** 0.06
7755 H 50.46196810369529 50.88046436237914 41.98913602265884 H 0.0 **** 0.06
7756 C 45.99376418865046 31.59794625418335 25.09206358378981 C 0.0 **** -0.24
7757 H 46.26670704391973 32.65363405124128 25.058607570902637 H 0.0 **** 0.06
7758 H 46.80064295661989 31.02934577241612 25.55395627448644 H 0.0 **** 0.06
7759 H 45.82533496979841 31.234591827493595 24.079136732620896 H 0.0 **** 0.06
7760 H 45.08228573668171 31.477972464197748 25.67851912693851 H 0.0 **** 0.06
7761 C 23.52197373022446 97.25704660590186 82.40908202811893 C 0.0 **** -0.24
7762 H 23.386002228930124 98.29029844335409 82.72762573961515 H 0.0 **** 0.06
7763 H 24.072426788860582 97.23577328508895 81.46827140337231 H 0.0 **** 0.06
7764 H 22.547994463358577 96.78754502030941 82.27090321804688 H 0.0 **** 0.06
7765 H 24.082002711665154 96.7138380907512 83.1699550512507 H 0.0 **** 0.06
7766 C 110.43109698573227 32.20289044265244 99.87154620035211 C 0.0 **** -0.24
7767 H 109.8029355278243 31.806902383179214 99.07307051864076 H 0.0 **** 0.06
7768 H 111.14010832031157 32.91743885714077 99.4545411935769 H 0.0 **** 0.06
7769 H 110.97501678616939 31.38414807128286 100.34510932160612 H 0.0 **** 0.06
7770 H 109.80530992390415 32.699561362971686 100.61266512070043 H 0.0 **** 0.06
7771 C 72.31662397394766 36.52619984196264 92.13559963892556 C 0.0 **** -0.24
7772 H 71.76187047585101 35.597533131162834 91.99835360438266 H 0.0 **** 0.06
7773 H 73.03125674031966 36.64538979586757 91.32094663353723 H 0.0 **** 0.06
7774 H 72.84894877994081 36.49414589354279 93.08542883419426 H 0.0 **** 0.06
7775 H 71.62230493709824 37.36650139505866 92.13593265584734 H 0.0 **** 0.06
7776 C 78.72589081820263 108.37844895568409 48.67080030584242 C 0.0 **** -0.24
7777 H 79.69144769191416 108.83028035581343 48.896760504694754 H 0.0 **** 0.06
7778 H 78.8746011326565 107.35116066546159 48.3372545482556 H 0.0 **** 0.06
7779 H 78.23330056359057 108.94954948526055 47.88268302406877 H 0.0 **** 0.06
7780 H 78.10396580725796 108.38436454268133 49.565790811301554 H 0.0 **** 0.06
7781 C 104.63479494487797 14.257031230119821 11.34950074953582 C 0.0 **** -0.24
7782 H 105.13532306312959 15.114656112846774 11.79661570954945 H 0.0 **** 0.06
7783 H 103.8317946298751 14.603737358573312 10.698532916129732 H 0.0 **** 0.06
7784 H 104.21763168976918 13.628428409359117 12.13708446704717 H 0.0 **** 0.06
7785 H 105.35315714722464 13.679951519450299 10.766513161631327 H 0.0 **** 0.06
7786 C 59.89364824892317 54.9414209216037 20.769669663344036 C 0.0 **** -0.24
7787 H 59.04658951000056 55.07159472617168 20.096394840097307 H 0.0 **** 0.06
7788 H 59.530535054800396 54.816500176884794 21.790718850633457 H 0.0 **** 0.06
7789 H 60.53640305277759 55.820806991781794 20.71724649337752 H 0.0 **** 0.06
7790 H 60.460854913662274 54.05838505170583 20.474939285267187 H 0.0 **** 0.06
7791 C 98.62859441303914 14.168034208159838 55.6946279434333 C 0.0 **** -0.24
7792 H 97.5929340083683 14.30909459976067 55.38806776694242 H 0.0 **** 0.06
7793 H 98.72413985151019 14.377031171424392 56.760159300783066 H 0.0 **** 0.06
7794 H 99.26970244598462 14.846351871843808 55.132632114037435 H 0.0 **** 0.06
7795 H 98.92816704304977 13.138381595427518 55.49743386648439 H 0.0 **** 0.06
7796 C 41.48468902592779 86.29184967893788 63.91026825231755 C 0.0 **** -0.24
7797 H 42.14865247286065 85.8612889519604 63.16149614257358 H 0.0 **** 0.06
7798 H 40.68867589470722 85.58214104375197 64.14062795972463 H 0.0 **** 0.06
7799 H 41.049572298251604 87.21279740631189 63.52336464490857 H 0.0 **** 0.06
7800 H 42.05056895692269 86.50964111652 64.81552372832492 H 0.0 **** 0.06
7801 C 85.32755963699663 55.56627976061577 33.511986685809774 C 0.0 **** -0.24
7802 H 85.29666595784336 54.54324037467967 33.88697166014413 H 0.0 **** 0.06
7803 H 86.36533873642219 55.86686770265277 33.36213593769432 H 0.0 **** 0.06
7804 H 84.85556971750277 56.23221329136834 34.23391379156243 H 0.0 **** 0.06
7805 H 84.79299887443182 55.62028368290288 32.56278798317834 H 0.0 **** 0.06
7806 C 70.94586760589613 40.84018078113081 38.53581405342248 C 0.0 **** -0.24
7807 H 69.97743562724696 40.41815323594875 38.2685876528161 H 0.0 **** 0.06
7808 H 71.733510829186 40.30753848011443 38.002688294968735 H 0.0 **** 0.06
7809 H 71.10174152905893 40.739013076187746 39.61048387012071 H 0.0 **** 0.06
7810 H 70.97119912013113 41.89477331325509 38.26262619866926 H 0.0 **** 0.06
7811 C 85.95293405654493 91.7279958651056 100.91668002050756 C 0.0 **** -0.24
7812 H 87.02846045171222 91.90505554719866 100.95135904524295 H 0.0 **** 0.06
7813 H 85.47351373421846 92.52007061886509 100.34044783686365 H 0.0 **** 0.06
7814 H 85.55268933426802 91.72417500535614 101.93081971730926 H 0.0 **** 0.06
7815 H 85.75808035297725 90.76593870976386 100.44526865279845 H 0.0 **** 0.06
7816 C 77.92491070007658 77.18373461366846 20.067770920171387 C 0.0 **** -0.24
7817 H 77.39650095433421 77.44333177887228 19.149854672212964 H 0.0 **** 0.06
7818 H 78.79356620641366 77.83119325217052 20.18185680040115 H 0.0 **** 0.06
7819 H 78.24931518909465 76.14423559189237 20.017290674591344 H 0.0 **** 0.06
7820 H 77.25753837849189 77.31479058936208 20.919921305100246 H 0.0 **** 0.06
7821 C 43.328005269928326 13.31089212488412 68.91601676430383 C 0.0 **** -0.24
7822 H 44.037546064071734 13.657680151809046 68.16468284176767 H 0.0 **** 0.06
7823 H 42.466138626364994 13.97788300687121 68.93669972006086 H 0.0 **** 0.06
7824 H 43.80899262207947 13.307400884740531 69.89419604990738 H 0.0 **** 0.06
7825 H 43.0016890687603 12.301311367107076 68.66847665174788 H 0.0 **** 0.06
7826 C 21.687704700325497 50.515773573808296 41.476793425264376 C 0.0 **** -0.24
7827 H 22.312819962703287 50.63791619958739 42.360716931288906 H 0.0 **** 0.06
7828 H 21.21352935133342 49.533853897103796 41.49942724947121 H 0.0 **** 0.06
7829 H 22.3036123640737 50.6016987038701 40.58171111438486 H 0.0 **** 0.06
7830 H 20.920109066483462 51.29037454231324 41.46438062163685 H 0.0 **** 0.06
7831 C 84.6403030095692 53.73115401944858 74.4986613445295 C 0.0 **** -0.24
7832 H 84.81661040338903 53.26383659877928 75.46689726882667 H 0.0 **** 0.06
7833 H 85.5038199048283 54.3375533183671 74.22555296497683 H 0.0 **** 0.06
7834 H 83.75453358947836 54.36415878637118 74.55623092085196 H 0.0 **** 0.06
7835 H 84.48570590994734 52.95850263196809 73.74478644902743 H 0.0 **** 0.06
7836 C 6.654428600342362 69.65851064155649 58.201107125755435 C 0.0 **** -0.24
7837 H 6.450718454580446 69.55811486013543 57.13450567659939 H 0.0 **** 0.06
7838 H 7.427614450112889 68.94749782856627 58.49157250117944 H 0.0 **** 0.06
7839 H 5.7442944157121225 69.45707924489761 58.76545883830906 H 0.0 **** 0.06
7840 H 6.995041456111521 70.67301979798634 58.41140418845627 H 0.0 **** 0.06
7841 C 77.81032043685309 108.66828370219571 11.598750219154937 C 0.0 **** -0.24
7842 H 77.68286717157997 107.63684157239783 11.926230741535704 H 0.0 **** 0.06
7843 H 78.34903294985537 108.68391748725509 10.651201194010923 H 0.0 **** 0.06
7844 H 78.37665809259778 109.22034367035928 12.34870500105012 H 0.0 **** 0.06
7845 H 76.83258431595533 109.13114715974064 11.46930844772416 H 0.0 **** 0.06
7846 C 107.78735178284282 74.37479229388384 78.40868326984575 C 0.0 **** -0.24
7847 H 107.08319228263777 74.9199739573395 79.03688790520533 H 0.0 **** 0.06
7848 H 108.56063168962022 75.05682950453831 78.05454603186286 H 0.0 **** 0.06
7849 H 107.25907427865592 73.95044392170917 77.55472654736049 H 0.0 **** 0.06
7850 H 108.24547093413912 73.57360393446874 78.98712574815966 H 0.0 **** 0.06
7851 C 50.94565574504749 20.87248143419402 96.37431197250982 C 0.0 **** -0.24
7852 H 51.629571336956175 21.4261051504209 95.73128168013193 H 0.0 **** 0.06
7853 H 50.2833997562243 20.26248137758634 95.76003950566289 H 0.0 **** 0.06
7854 H 50.35384624372425 21.572325530952032 96.96371883697753 H 0.0 **** 0.06
7855 H 51.517781596448266 20.22809188062241 97.04270400274879 H 0.0 **** 0.06
7856 C 12.990009815496535 8.666355512474183 49.23817914555389 C 0.0 **** -0.24
7857 H 13.273035582190232 8.873220966049956 50.26941177816355 H 0.0 **** 0.06
7858 H 13.863160692053441 8.318362118364178 48.684961332601816 H 0.0 **** 0.06
7859 H 12.606349275041225 9.57591659428033 48.77674992528877 H 0.0 **** 0.06
7860 H 12.218619194080986 7.8967084195312225 49.22047113174876 H 0.0 **** 0.06
7861 C 34.855264538650374 86.78699414933521 82.2922331391552 C 0.0 **** -0.24
7862 H 35.931521017926116 86.76309901981222 82.11835157822065 H 0.0 **** 0.06
7863 H 34.48288190963257 85.76937347785744 82.4105085962947 H 0.0 **** 0.06
7864 H 34.361394377456634 87.25950739648997 81.44283967659425 H 0.0 **** 0.06
7865 H 34.64754594126407 87.35818249145399 83.19726717905633 H 0.0 **** 0.06
7866 C 66.03506133010444 82.85385612740734 55.663713723473165 C 0.0 **** -0.24
7867 H 67.0851472818 82.7280405851142 55.92743833941364 H 0.0 **** 0.06
7868 H 65.94032631487636 83.64654961943994 54.92068942862092 H 0.0 **** 0.06
7869 H 65.4662539186221 83.12043787523295 56.5543999889262 H 0.0 **** 0.06
7870 H 65.64975632380191 81.92069604318736 55.2517136193116 H 0.0 **** 0.06
7871 C 46.56555055783929 23.55515716738478 64.1759700887561 C 0.0 **** -0.24
7872 H 46.45833200774564 24.620232271759736 64.38342605366795 H 0.0 **** 0.06
7873 H 47.03679879650019 23.064974260926363 65.02754481769168 H 0.0 **** 0.06
7874 H 47.18583783060433 23.419106726211826 63.288959487585956 H 0.0 **** 0.06
7875 H 45.5823622681977 23.118594786842866 64.00182135862808 H 0.0 **** 0.06
7876 C 105.83586414212553 6.927166556199637 68.85736607265568 C 0.0 **** -0.24
7877 H 106.18778881639534 7.478176561329889 67.98542243234243 H 0.0 **** 0.06
7878 H 106.47860640028978 7.147522377504558 69.71012305556116 H 0.0 **** 0.06
7879 H 105.86473296366367 5.857825960601687 68.64669323657793 H 0.0 **** 0.06
7880 H 104.81250011367024 7.224183888044905 69.08619895780097 H 0.0 **** 0.06
7881 C 64.81976151303218 44.51416308334062 46.377732514992545 C 0.0 **** -0.24
7882 H 64.29403176262258 45.46314947563555 46.48431487671252 H 0.0 **** 0.06
7883 H 65.87986235640597 44.70376283196747 46.206691832853835 H 0.0 **** 0.06
7884 H 64.40682543586786 43.96440169031716 45.531883861691085 H 0.0 **** 0.06
7885 H 64.69661119392441 43.92700275267783 47.28750306398064 H 0.0 **** 0.06
7886 C 46.581379558468115 53.850800205960695 89.1918372398649 C 0.0 **** -0.24
7887 H 45.56707152703672 54.246236955584436 89.25886563462615 H 0.0 **** 0.06
7888 H 46.825458394942785 53.6530697458428 88.14731151059044 H 0.0 **** 0.06
7889 H 46.6473123859266 52.925029084073515 89.7625248713284 H 0.0 **** 0.06
7890 H 47.282552909615106 54.57983114374923 89.59808661955886 H 0.0 **** 0.06
7891 C 38.69286784253478 92.91936952078183 72.94386942414855 C 0.0 **** -0.24
7892 H 38.23573084811693 93.42838195800235 72.09471755883277 H 0.0 **** 0.06
7893 H 38.40927075760601 91.86744563797157 72.93284584901687 H 0.0 **** 0.06
7894 H 38.34998058142969 93.3797692944837 73.87009189872231 H 0.0 **** 0.06
7895 H 39.777697446554384 93.00461512055618 72.87678980092818 H 0.0 **** 0.06
7896 C 73.04928574040267 107.58424642278206 72.30425432217675 C 0.0 **** -0.24
7897 H 72.0445462048739 107.2636079275724 72.57843149447194 H 0.0 **** 0.06
7898 H 73.76712181779371 107.1799730590124 73.01859821057303 H 0.0 **** 0.06
7899 H 73.09930262777186 108.67270366056408 72.3146392335006 H 0.0 **** 0.06
7900 H 73.287527131377 107.21899152067284 71.3048561676128 H 0.0 **** 0.06
7901 C 96.10243433732865 17.249209601071897 42.77625601168609 C 0.0 **** -0.24
7902 H 96.61566451776571 17.172756695924537 41.817720428694884 H 0.0 **** 0.06
7903 H 96.64810895067436 17.93222137250323 43.426842546569105 H 0.0 **** 0.06
7904 H 96.05202776160937 16.265185774212018 43.241799769612385 H 0.0 **** 0.06
7905 H 95.09238534158118 17.628752382475632 42.617151930581656 H 0.0 **** 0.06
7906 C 57.28428617666614 93.5296279003727 34.96630921302597 C 0.0 **** -0.24
7907 H 57.63311143797148 92.71367396080916 34.33376371206684 H 0.0 **** 0.06
7908 H 56.19703944906908 93.48927044022645 35.04272671424686 H 0.0 **** 0.06
7909 H 57.58267866398273 94.48189255585191 34.5290705745422 H 0.0 **** 0.06
7910 H 57.72198236489214 93.43294201858396 35.9598229841886 H 0.0 **** 0.06
7911 C 4.206713944959242 97.20071433235599 96.74691539291437 C 0.0 **** -0.24
7912 H 4.822344233142649 97.51797159460494 97.58806333671568 H 0.0 **** 0.06
7913 H 4.260287361265222 97.94770325199136 95.9554066204468 H 0.0 **** 0.06
7914 H 3.172628340829844 97.0909007321764 97.07453514158047 H 0.0 **** 0.06
7915 H 4.570857549076917 96.24421514656746 96.37008579641682 H 0.0 **** 0.06
7916 C 78.04649560539937 7.468432168873283 77.93263862891348 C 0.0 **** -0.24
7917 H 78.69628001941096 8.10720577023606 78.5306965060083 H 0.0 **** 0.06
7918 H 78.36997288906923 7.493357959069199 76.8918591600862 H 0.0 **** 0.06
7919 H 77.01949494228619 7.827195691799247 78.00319442467764 H 0.0 **** 0.06
7920 H 78.10050050365389 6.44543577561865 78.30608691491699 H 0.0 **** 0.06
7921 C 99.50891252310245 40.06990883096688 56.071573060478414 C 0.0 **** -0.24
7922 H 99.04857686099044 39.772797190892064 57.01374951537065 H 0.0 **** 0.06
7923 H 100.28360223950857 39.35135315152394 55.80374230140353 H 0.0 **** 0.06
7924 H 99.95230633908191 41.06018964950894 56.179696131594625 H 0.0 **** 0.06
7925 H 98.75040554327704 40.095797586004835 55.28869011505333 H 0.0 **** 0.06
7926 C 55.34220735655679 4.408198411516565 6.7577175653387656 C 0.0 **** -0.24
7927 H 55.0173740191003 5.4408511153466605 6.884032310806731 H 0.0 **** 0.06
7928 H 54.87021473999646 3.7830387709634294 7.515664875299365 H 0.0 **** 0.06
7929 H 56.42556512959965 4.35285100982108 6.862150840342224 H 0.0 **** 0.06
7930 H 55.05483094967521 4.0562756631251915 5.766152141953455 H 0.0 **** 0.06
7931 C 104.5831956308373 59.55950434853398 63.85962765071781 C 0.0 **** -0.24
7932 H 104.90916874324411 59.095357673779304 62.92809440194469 H 0.0 **** 0.06
7933 H 103.54330791513783 59.29281735764127 64.05229418942955 H 0.0 **** 0.06
7934 H 104.67191838182727 60.64209761853439 63.776900704264676 H 0.0 **** 0.06
7935 H 105.2076244889014 59.20524874387368 64.679435719085 H 0.0 **** 0.06
7936 C 16.23227285836568 14.7966985255742 69.45989243134426 C 0.0 **** -0.24
7937 H 15.778536200189187 13.808148293386395 69.39398201803337 H 0.0 **** 0.06
7938 H 16.69896880287483 15.046655667636898 68.50801955854669 H 0.0 **** 0.06
7939 H 16.986847075311584 14.797308763923724 70.24649977435799 H 0.0 **** 0.06
7940 H 15.463386179441606 15.533743259020397 69.69357622255431 H 0.0 **** 0.06
7941 C 46.97380630428597 70.84188394287844 55.546746154839155 C 0.0 **** -0.24
7942 H 46.563864557451495 71.832098716504 55.746799205373705 H 0.0 **** 0.06
7943 H 47.70352242116354 70.90745816106389 54.73983343839136 H 0.0 **** 0.06
7944 H 46.168561204908485 70.16838003817239 55.25390910820873 H 0.0 **** 0.06
7945 H 47.45840019325101 70.46096340719302 56.445835165793085 H 0.0 **** 0.06
7946 C 20.494549344285232 101.73606558518092 51.797980980595185 C 0.0 **** -0.24
7947 H 21.021119066345264 102.21575393286912 50.97305544611686 H 0.0 **** 0.06
7948 H 20.816084515837446 102.17974683786942 52.740683400577666 H 0.0 **** 0.06
7949 H 20.72184590372771 100.66954618145209 51.802272806524115 H 0.0 **** 0.06
7950 H 19.421140610653396 101.87849044210733 51.675202499221996 H 0.0 **** 0.06
7951 C 38.609561812003506 22.46509231890188 81.6970399684997 C 0.0 **** -0.24
7952 H 39.68086540126674 22.517876268591095 81.89212258638912 H 0.0 **** 0.06
7953 H 38.14307226882124 23.408043377514986 81.98111655514887 H 0.0 **** 0.06
7954 H 38.17460451917748 21.65324759287833 82.27942814962248 H 0.0 **** 0.06
7955 H 38.44182716159003 22.28060526471222 80.63586780837402 H 0.0 **** 0.06
7956 C 91.03071149933345 43.49756056102922 63.3313677173507 C 0.0 **** -0.24
7957 H 90.94955210778892 43.8607441304149 64.35613042465599 H 0.0 **** 0.06
7958 H 91.35195877344692 42.45582553344781 63.338443805919496 H 0.0 **** 0.06
7959 H 91.76180598375923 44.09962556855734 62.79041634327373 H 0.0 **** 0.06
7960 H 90.06099701169437 43.576732959843355 62.83968561604212 H 0.0 **** 0.06
7961 C 32.93695764018343 60.186008684305335 53.96000527290507 C 0.0 **** -0.24
7962 H 32.342263153625716 61.07201368860939 54.180364723933835 H 0.0 **** 0.06
7963 H 33.97282408922092 60.36253133794722 54.25187039201882 H 0.0 **** 0.06
7964 H 32.89111301153045 59.97438301643348 52.891918404666384 H 0.0 **** 0.06
7965 H 32.54323336234546 59.33610083643748 54.516532472407775 H 0.0 **** 0.06
7966 C 53.70304605813561 17.020793891663835 71.69923471285009 C 0.0 **** -0.24
7967 H 53.2815867712784 17.793534569520006 72.34203688962072 H 0.0 **** 0.06
7968 H 54.32127143677599 16.349507328020195 72.29659016888462 H 0.0 **** 0.06
7969 H 54.31272772756523 17.485204211140868 70.92539690429726 H 0.0 **** 0.06
7970 H 52.89537931678706 16.454134533389166 71.23488529058625 H 0.0 **** 0.06
7971 C 88.281621450317 60.05259451843813 23.82118955090266 C 0.0 **** -0.24
7972 H 89.27531255544665 59.797516867399 24.19136678205564 H 0.0 **** 0.06
7973 H 87.72206368449474 59.13805864427751 23.62470806953172 H 0.0 **** 0.06
7974 H 88.37544254826656 60.626792804360235 22.898429150341826 H 0.0 **** 0.06
7975 H 87.75764139127955 60.64724370251807 24.56810512443036 H 0.0 **** 0.06
7976 C 94.00417352009114 99.59598827731662 30.783160474229234 C 0.0 **** -0.24
7977 H 94.78457831755108 99.34093686400325 31.50019036627949 H 0.0 **** 0.06
7978 H 93.79592380197808 100.66456493814206 30.837416440790406 H 0.0 **** 0.06
7979 H 93.09829448861986 99.03598811446392 31.019560199788934 H 0.0 **** 0.06
7980 H 94.33714496532978 99.34044882985916 29.77731240961544 H 0.0 **** 0.06
7981 C 39.1483369378519 70.88774312818703 16.474110383181895 C 0.0 **** -0.24
7982 H 38.5563022710786 70.66881877084495 15.585850974303597 H 0.0 **** 0.06
7983 H 40.07473861214781 71.3817902660902 16.180261573948542 H 0.0 **** 0.06
7984 H 39.38043155843825 69.9585762045009 16.994073478576738 H 0.0 **** 0.06
7985 H 38.58193342304416 71.54308614628007 17.136811965435527 H 0.0 **** 0.06
7986 C 44.699810718537314 47.40719695748635 61.222837715716196 C 0.0 **** -0.24
7987 H 44.9994689005399 47.89862807891211 62.147790738872686 H 0.0 **** 0.06
7988 H 44.91043339835806 48.06361473434413 60.37716896475487 H 0.0 **** 0.06
7989 H 43.63271314973595 47.18944833264419 61.25628921777263 H 0.0 **** 0.06
7990 H 45.257749394889935 46.47797952447911 61.108111444251506 H 0.0 **** 0.06
7991 C 69.82517496384864 58.49574425216971 18.724266021071656 C 0.0 **** -0.24
7992 H 69.11874357695615 58.296829036408745 19.53082055527031 H 0.0 **** 0.06
7993 H 70.74490566820992 58.907576150857665 19.140499949958482 H 0.0 **** 0.06
7994 H 69.38870252880858 59.21129159362586 18.027919474594796 H 0.0 **** 0.06
7995 H 70.04695811447121 57.567116261248 18.19956805349993 H 0.0 **** 0.06
7996 C 21.410342921409097 65.96831256002156 49.77942800234695 C 0.0 **** -0.24
7997 H 22.043776783328212 65.16775364930109 50.16232712367446 H 0.0 **** 0.06
7998 H 21.68450687134873 66.90839788393498 50.259672229189164 H 0.0 **** 0.06
7999 H 20.366644578008163 65.74072423490526 49.995041147484244 H 0.0 **** 0.06
8000 H 21.54971895922506 66.05647867401339 48.702175122749225 H 0.0 **** 0.06
8001 C 78.37079633608823 43.50366623907611 91.04564485182885 C 0.0 **** -0.24
8002 H 78.96101181634575 43.61369191556001 91.95550460988494 H 0.0 **** 0.06
8003 H 78.01467300905387 44.48320398455756 90.72420778148579 H 0.0 **** 0.06
8004 H 77.51881779751989 42.85357515682229 91.24178467126993 H 0.0 **** 0.06
8005 H 78.98953856382548 43.06749170746169 90.26170892179107 H 0.0 **** 0.06
8006 C 64.11915873424032 84.02706591983576 92.03010010995627 C 0.0 **** -0.24
8007 H 64.51770633686486 83.15507565410923 91.51058248066488 H 0.0 **** 0.06
8008 H 63.38156501726441 83.70617069083454 92.76542688998177 H 0.0 **** 0.06
8009 H 63.648041141538926 84.69400534801923 91.30836974323114 H 0.0 **** 0.06
8010 H 64.93120617665018 84.55098623007842 92.53350169176872 H 0.0 **** 0.06
8011 C 58.28944137586751 69.60613384391269 87.17469132991363 C 0.0 **** -0.24
8012 H 58.29684509607205 69.31468455398097 86.1249217488305 H 0.0 **** 0.06
8013 H 57.52137968671667 70.36154068623678 87.33680367513273 H 0.0 **** 0.06
8014 H 59.26363757138364 70.01336148599562 87.44471565664702 H 0.0 **** 0.06
8015 H 58.077035332607124 68.73314533132283 87.79300721497205 H 0.0 **** 0.06
8016 C 53.74119560176937 3.6795247400010567 83.73327102330643 C 0.0 **** -0.24
8017 H 54.33686539285919 3.9528891599346707 84.60428946844684 H 0.0 **** 0.06
8018 H 53.93022819247724 2.637225954700341 83.47687749513764 H 0.0 **** 0.06
8019 H 54.01394210649825 4.3166616779321885 82.89233668091691 H 0.0 **** 0.06
8020 H 52.683401649817 3.8123232150041417 83.9609512092625 H 0.0 **** 0.06
8021 C 7.298693429895522 41.16379212082592 101.72674781721378 C 0.0 **** -0.24
8022 H 8.1169372741887 41.53378311222244 102.34537651068712 H 0.0 **** 0.06
8023 H 7.105410045026474 41.86967858457527 100.91848325248105 H 0.0 **** 0.06
8024 H 6.401568623148691 41.05650485574506 102.33687672220353 H 0.0 **** 0.06
8025 H 7.569907263994622 40.1954724330449 101.30640776519186 H 0.0 **** 0.06
8026 C 100.05546094920379 58.6817835121403 45.359528505848616 C 0.0 **** -0.24
8027 H 98.99813648393268 58.43701800373188 45.460427212267845 H 0.0 **** 0.06
8028 H 100.28809142966418 58.86395598305086 44.309896651884486 H 0.0 **** 0.06
8029 H 100.65785765768464 57.85046006615863 45.72646622776156 H 0.0 **** 0.06
8030 H 100.27798188280983 59.5757480216038 45.94229744121603 H 0.0 **** 0.06
8031 C 104.93390921941007 69.36282182327061 47.321270357289904 C 0.0 **** -0.24
8032 H 104.38674795461095 70.16784744810458 46.82963016497132 H 0.0 **** 0.06
8033 H 105.96374975506995 69.67666571648151 47.492851924085414 H 0.0 **** 0.06
8034 H 104.92288359082323 68.47696783920958 46.68654296077912 H 0.0 **** 0.06
8035 H 104.46017087659777 69.13189902959905 48.275532056762984 H 0.0 **** 0.06
8036 C 58.013880980001346 106.04500913416535 48.7361158938659 C 0.0 **** -0.24
8037 H 58.37638290771628 106.41629862969293 49.69464611860713 H 0.0 **** 0.06
8038 H 56.95960539318125 105.78054462129842 48.82459921905918 H 0.0 **** 0.06
8039 H 58.58741679584574 105.1639130313884 48.44801857349028 H 0.0 **** 0.06
8040 H 58.13176181252828 106.81876290313983 47.9779774441016 H 0.0 **** 0.06
8041 C 27.93268688709645 25.542740501273187 52.93768706992022 C 0.0 **** -0.24
8042 H 27.040782083570974 25.713149263431433 52.33510563671525 H 0.0 **** 0.06
8043 H 27.914000021799694 26.19873588871596 53.807325803299825 H 0.0 **** 0.06
8044 H 28.820553184531263 25.7531343813514 52.34113480716768 H 0.0 **** 0.06
8045 H 27.955071708210937 24.503527206704206 53.26695659361798 H 0.0 **** 0.06
8046 C 28.90133368188782 63.36459246823925 41.6848261212418 C 0.0 **** -0.24
8047 H 27.966298912283605 63.80104733269715 42.03738662943641 H 0.0 **** 0.06
8048 H 29.649572416397746 64.14961252865113 41.57672423554192 H 0.0 **** 0.06
8049 H 28.735745867843917 62.88380371833718 40.7197729226032 H 0.0 **** 0.06
8050 H 29.250543874907066 62.62452645563107 42.40468322973288 H 0.0 **** 0.06
8051 C 69.2770368369143 110.11821396651332 49.466583104467475 C 0.0 **** -0.24
8052 H 69.64626532483874 110.68535858708448 48.611914717400396 H 0.0 **** 0.06
8053 H 70.05984311215173 109.44918862927899 49.8232736433751 H 0.0 **** 0.06
8054 H 68.4070136428042 109.53455724954155 49.1667812052637 H 0.0 **** 0.06
8055 H 68.99522843199463 110.8059755798111 50.264253304804015 H 0.0 **** 0.06
8056 C 10.408631867772897 87.24144580513541 34.1945540471724 C 0.0 **** -0.24
8057 H 9.875674832787752 87.9589347283437 34.81840031946646 H 0.0 **** 0.06
8058 H 9.689007050811512 86.61566119142685 33.666048128431726 H 0.0 **** 0.06
8059 H 11.042980309620532 86.61616603796574 34.821910358106436 H 0.0 **** 0.06
8060 H 11.025406075288856 87.7756975172249 33.472500467916234 H 0.0 **** 0.06
8061 C 101.95294187301204 39.67170168357228 20.521191021345317 C 0.0 **** -0.24
8062 H 101.46689874297016 40.64659446525465 20.552557378772264 H 0.0 **** 0.06
8063 H 102.79991254665129 39.66624184803856 21.207695667283843 H 0.0 **** 0.06
8064 H 102.30359122638333 39.4728356062407 19.50866989766422 H 0.0 **** 0.06
8065 H 101.24051371536689 38.90090147279746 20.81631120236881 H 0.0 **** 0.06
8066 C 90.19365343543555 73.79752010176618 13.422801646882732 C 0.0 **** -0.24
8067 H 90.09795288205629 74.61084897079168 12.702993810701713 H 0.0 **** 0.06
8068 H 89.5822989648903 72.95404863017735 13.099576649874123 H 0.0 **** 0.06
8069 H 89.8563380456398 74.13764282099025 14.401455595695893 H 0.0 **** 0.06
8070 H 91.23655336375674 73.4881655146606 13.484641468841176 H 0.0 **** 0.06
8071 C 87.63741864924881 61.33651978200345 28.715319488113437 C 0.0 **** -0.24
8072 H 87.58883647390792 61.144256396477545 29.786318651156023 H 0.0 **** 0.06
8073 H 88.16872679553393 60.52129055372015 28.22316733581127 H 0.0 **** 0.06
8074 H 88.1643005480243 62.273510305147454 28.538285888360406 H 0.0 **** 0.06
8075 H 86.62691900719958 61.40657196343554 28.313554801569836 H 0.0 **** 0.06
8076 C 21.065966066156477 86.19422666849255 0.8217494503152523 C 0.0 **** -0.24
8077 H 20.222349495434514 86.83350042093082 0.5605964187995056 H 0.0 **** 0.06
8078 H 21.73096083687858 86.73011903312084 1.4986482865524664 H 0.0 **** 0.06
8079 H 21.609877028040643 85.92444992864188 -0.08423905672728438 H 0.0 **** 0.06
8080 H 20.69996909979369 85.29075492632387 1.3093802105048553 H 0.0 **** 0.06
8081 C 30.546473748023402 80.91892409761799 73.6421956233844 C 0.0 **** -0.24
8082 H 31.36449914009563 80.21332192790372 73.49550959596257 H 0.0 **** 0.06
8083 H 30.760168952298784 81.54900594577826 74.50480613158777 H 0.0 **** 0.06
8084 H 29.619857085880312 80.37032492980312 73.81272794982556 H 0.0 **** 0.06
8085 H 30.440773947730236 81.54211431173043 72.75355210795823 H 0.0 **** 0.06
8086 C 84.14096140680459 70.32226081580097 29.784905888335373 C 0.0 **** -0.24
8087 H 83.06910163865433 70.20741183153956 29.626665469018036 H 0.0 **** 0.06
8088 H 84.38768489103074 70.05547483446554 30.81317071720605 H 0.0 **** 0.06
8089 H 84.42614331391712 71.3575411869713 29.600104579781572 H 0.0 **** 0.06
8090 H 84.68173407640478 69.66904218946837 29.100067893384107 H 0.0 **** 0.06
8091 C 61.05597070719661 102.99989935341256 104.94317385613971 C 0.0 **** -0.24
8092 H 61.63819832099202 103.24666867936389 104.05579085056365 H 0.0 **** 0.06
8093 H 61.60260356408229 102.27506360669088 105.54648090517225 H 0.0 **** 0.06
8094 H 60.09819120839009 102.57570356776904 104.64216706527952 H 0.0 **** 0.06
8095 H 60.8852449055001 103.90413565494237 105.52726814312189 H 0.0 **** 0.06
8096 C 90.27420856455387 95.95289875692994 6.3752269044772305 C 0.0 **** -0.24
8097 H 90.83881424883651 95.34742216524472 5.665064718150973 H 0.0 **** 0.06
8098 H 89.29190261112149 96.17752148699424 5.9595198209324565 H 0.0 **** 0.06
8099 H 90.81018162932241 96.8824480547333 6.56548903873238 H 0.0 **** 0.06
8100 H 90.15691709121245 95.40232697052721 7.308485249082466 H 0.0 **** 0.06
8101 C 13.38634122020187 104.25786097262272 71.50577758872885 C 0.0 **** -0.24
8102 H 12.731342349024317 103.45276276378411 71.17260332478293 H 0.0 **** 0.06
8103 H 14.387914184430201 104.09900604395204 71.1066066710099 H 0.0 **** 0.06
8104 H 13.424797483820555 104.26632389883719 72.59525418183489 H 0.0 **** 0.06
8105 H 12.998585137776843 105.21175127457474 71.14875206390604 H 0.0 **** 0.06
8106 C 50.18481124399162 49.3819034270299 52.68296010728224 C 0.0 **** -0.24
8107 H 49.773411524601464 49.33110961231168 51.67474633916125 H 0.0 **** 0.06
8108 H 49.61944124548566 50.10641114830551 53.269900569518704 H 0.0 **** 0.06
8109 H 51.22947358798742 49.6885574048662 52.633537021329424 H 0.0 **** 0.06
8110 H 50.116315838765004 48.400660121285995 53.15272354931461 H 0.0 **** 0.06
8111 C 110.77850017556426 49.139844498498775 52.376926773594676 C 0.0 **** -0.24
8112 H 110.82402971191026 48.13516452110457 52.79670637572988 H 0.0 **** 0.06
8113 H 111.75407973870749 49.4084957427348 51.96993680995827 H 0.0 **** 0.06
8114 H 110.50352215424877 49.84820602758106 53.158745032623976 H 0.0 **** 0.06
8115 H 110.03246899310038 49.16849407997379 51.582477008198566 H 0.0 **** 0.06
8116 C 59.25302457936135 40.331885193808915 60.454154688726135 C 0.0 **** -0.24
8117 H 59.080715011737084 39.2641260861312 60.5982926677888 H 0.0 **** 0.06
8118 H 59.73550368334159 40.74361323189686 61.34072373799877 H 0.0 **** 0.06
8119 H 58.29978231672871 40.83459781988884 60.29090355384635 H 0.0 **** 0.06
8120 H 59.89590374193256 40.48147975006458 59.587008473644445 H 0.0 **** 0.06
8121 C 31.596056645890286 27.37806209341619 74.86674214237638 C 0.0 **** -0.24
8122 H 31.397933596127302 28.449615344578717 74.83905412943864 H 0.0 **** 0.06
8123 H 32.6202229402881 27.206059562443613 75.1963831825903 H 0.0 **** 0.06
8124 H 31.459758193153647 26.958050421372775 73.86991633694436 H 0.0 **** 0.06
8125 H 30.90473170058425 26.89813061747094 75.56008215603094 H 0.0 **** 0.06
8126 C 46.57940864714067 94.51315433430933 0.39748539595446175 C 0.0 **** -0.24
8127 H 47.50152586634059 95.09258616776602 0.45541104903800544 H 0.0 **** 0.06
8128 H 46.72402743080201 93.66498740580687 -0.27158783879762893 H 0.0 **** 0.06
8129 H 45.777132182530856 95.14525272140514 0.016136656213035394 H 0.0 **** 0.06
8130 H 46.31654493896843 94.15193026653638 1.391950879343952 H 0.0 **** 0.06
8131 C 15.168808136900267 109.53027891963089 7.421341851963362 C 0.0 **** -0.24
8132 H 15.855561578983782 109.55921306689201 6.575743113413338 H 0.0 **** 0.06
8133 H 14.285621779871121 108.94915171677566 7.152650847073545 H 0.0 **** 0.06
8134 H 14.869889468990593 110.54605651217177 7.681696007670837 H 0.0 **** 0.06
8135 H 15.66283195341856 109.0671574529604 8.275126764453674 H 0.0 **** 0.06
8136 C 3.84442608865146 6.781365583835338 69.40741970945477 C 0.0 **** -0.24
8137 H 3.375326390407963 5.823166503846792 69.1876433514965 H 0.0 **** 0.06
8138 H 3.379736618762763 7.219709763583083 70.29144848905575 H 0.0 **** 0.06
8139 H 3.715572395830179 7.45233012898629 68.5577173666416 H 0.0 **** 0.06
8140 H 4.908521616986491 6.63116616639816 69.59311740927194 H 0.0 **** 0.06
8141 C 59.11280850363744 54.947878331749635 59.73954235099394 C 0.0 **** -0.24
8142 H 59.07262729878698 55.067194430708604 58.65723655891769 H 0.0 **** 0.06
8143 H 58.16841713506841 55.27450437538298 60.176795350064225 H 0.0 **** 0.06
8144 H 59.92751339879641 55.55109499827977 60.14115206096514 H 0.0 **** 0.06
8145 H 59.28296023678337 53.89967625117826 59.98304894449137 H 0.0 **** 0.06
8146 C 71.91688116188732 40.24193099492845 27.795590137513216 C 0.0 **** -0.24
8147 H 71.60810882618249 39.40064238227865 27.17531049557438 H 0.0 **** 0.06
8148 H 71.72358781340442 40.01128843046462 28.843598944632227 H 0.0 **** 0.06
8149 H 71.35438213253816 41.13071336154775 27.50919444693274 H 0.0 **** 0.06
8150 H 72.98254572701377 40.42596388040272 27.654162649795076 H 0.0 **** 0.06
8151 C 75.72131002879878 0.4130624999918737 54.30950527876257 C 0.0 **** -0.24
8152 H 74.65050646574117 0.21058464728453163 54.33220289559404 H 0.0 **** 0.06
8153 H 75.97198249706086 0.9419298658240178 53.38989212042213 H 0.0 **** 0.06
8154 H 76.27073355393331 -0.5276163921885226 54.348719467265255 H 0.0 **** 0.06
8155 H 75.99180196629467 1.0276768110422312 55.1681274858538 H 0.0 **** 0.06
8156 C 12.399295803650233 20.274956354011778 37.031654406390295 C 0.0 **** -0.24
8157 H 12.430780210778607 19.835586680038148 38.02907698133729 H 0.0 **** 0.06
8158 H 11.425629654931825 20.083588365231464 36.580737286488905 H 0.0 **** 0.06
8159 H 13.180346121361026 19.831480915626486 36.41546078164433 H 0.0 **** 0.06
8160 H 12.561107845197057 21.350759654448353 37.104660516666975 H 0.0 **** 0.06
8161 C 89.4258066633089 72.97972578941213 93.88520779280108 C 0.0 **** -0.24
8162 H 89.71249803294066 73.45601960890681 94.82260683850768 H 0.0 **** 0.06
8163 H 88.88340313137138 72.05815154517529 94.09685150827401 H 0.0 **** 0.06
8164 H 90.32112235147844 72.75001109479831 93.30651031824318 H 0.0 **** 0.06
8165 H 88.78777950936028 73.65424667967704 93.31432370270228 H 0.0 **** 0.06
8166 C 27.69120321580658 84.02661673552677 61.00507482998832 C 0.0 **** -0.24
8167 H 28.234747130795824 83.72570133794734 60.1086342336086 H 0.0 **** 0.06
8168 H 27.67620518722748 83.19859466342858 61.714079245117105 H 0.0 **** 0.06
8169 H 26.669561335127696 84.29467787918884 60.73666320557072 H 0.0 **** 0.06
8170 H 28.185050333492256 84.88550248026903 61.45837823929239 H 0.0 **** 0.06
8171 C 42.12879341053434 84.26658790922313 99.7267352590956 C 0.0 **** -0.24
8172 H 41.744158757893615 84.9780808185031 98.99633623595717 H 0.0 **** 0.06
8173 H 42.66401045487578 84.80445917813825 100.51038698933576 H 0.0 **** 0.06
8174 H 42.808534146156205 83.57132184079995 99.2337967490135 H 0.0 **** 0.06
8175 H 41.29912442587789 83.71359346819469 100.16701613621595 H 0.0 **** 0.06
8176 C 94.63953382273206 13.061657387955677 105.67176846573435 C 0.0 **** -0.24
8177 H 95.66014829622222 13.410231012327074 105.8299843342939 H 0.0 **** 0.06
8178 H 94.16724510370058 13.665200290711596 104.89614929205689 H 0.0 **** 0.06
8179 H 94.07637589137067 13.15574954394998 106.60017868456346 H 0.0 **** 0.06
8180 H 94.65692686428027 12.01815351948278 105.36040566739348 H 0.0 **** 0.06
8181 C 91.54531054681138 96.4418575177887 54.94932464317799 C 0.0 **** -0.24
8182 H 92.16172051985302 97.02444683599914 54.26381591010647 H 0.0 **** 0.06
8183 H 92.01970944739486 95.47774996428268 55.13364518398021 H 0.0 **** 0.06
8184 H 90.5617470910837 96.2851149104703 54.50859647289974 H 0.0 **** 0.06
8185 H 91.44103423112173 96.98147575409753 55.8906557985062 H 0.0 **** 0.06
8186 C 43.248523652550055 61.047490536450596 15.711489198479171 C 0.0 **** -0.24
8187 H 42.6581684595295 61.71217120689181 16.34304611480607 H 0.0 **** 0.06
8188 H 43.35194949211825 60.0794190410997 16.20007934453359 H 0.0 **** 0.06
8189 H 44.23544756152688 61.48105659163474 15.551194517147607 H 0.0 **** 0.06
8190 H 42.747366785496084 60.919427978819385 14.75120560069331 H 0.0 **** 0.06
8191 C 104.9361689714126 34.58118501013615 44.55455635151693 C 0.0 **** -0.24
8192 H 105.38031926317164 33.594749299211486 44.42342355974878 H 0.0 **** 0.06
8193 H 103.91046658551316 34.47316580515138 44.9097144678553 H 0.0 **** 0.06
8194 H 104.93657368069859 35.10952155984393 43.60166443215648 H 0.0 **** 0.06
8195 H 105.51575837096419 35.14603881732441 45.28440977136063 H 0.0 **** 0.06
8196 C 95.07547465736552 34.51384909751022 84.14283194492185 C 0.0 **** -0.24
8197 H 95.90618284684257 35.00996775297051 84.64470734253815 H 0.0 **** 0.06
8198 H 94.16934680727152 35.10733014483131 84.26740053183705 H 0.0 **** 0.06
8199 H 94.92571195334358 33.525672992778084 84.57826032161816 H 0.0 **** 0.06
8200 H 95.30116251062844 34.41323659843226 83.08125394739253 H 0.0 **** 0.06
8201 C 13.850454165506676 76.94363326993017 57.25357360928996 C 0.0 **** -0.24
8202 H 13.053570241849329 76.88433112928622 57.99486977008911 H 0.0 **** 0.06
8203 H 13.770084119437321 77.88342553874672 56.706607507901765 H 0.0 **** 0.06
8204 H 13.760621774431595 76.10937641926803 56.556189571711286 H 0.0 **** 0.06
8205 H 14.817409464912846 76.89467553911648 57.754269446088756 H 0.0 **** 0.06
8206 C 58.93070372081041 105.30098553229365 96.33772630234716 C 0.0 **** -0.24
8207 H 58.28897420775024 104.96667886016084 97.15259806357065 H 0.0 **** 0.06
8208 H 59.9193628734142 104.85376586024393 96.44724088686746 H 0.0 **** 0.06
8209 H 59.017583044941205 106.38697285106855 96.36707322644077 H 0.0 **** 0.06
8210 H 58.496536533913314 104.9964466731198 95.3859591991419 H 0.0 **** 0.06
8211 C 74.01351968031335 56.17746441203089 46.80133210396189 C 0.0 **** -0.24
8212 H 74.73189766252983 55.67947083092726 46.14979759012643 H 0.0 **** 0.06
8213 H 73.10175474488634 56.38746530610801 46.24283051896295 H 0.0 **** 0.06
8214 H 74.44040446369658 57.111719388362296 47.16589999362756 H 0.0 **** 0.06
8215 H 73.7816094099087 55.530020002492115 47.64708744871541 H 0.0 **** 0.06
8216 C 36.7749233627333 57.581015934894204 45.742063759446665 C 0.0 **** -0.24
8217 H 35.89877262696559 58.2282488033614 45.79269265253788 H 0.0 **** 0.06
8218 H 36.568652673976445 56.64901576897425 46.26925336068851 H 0.0 **** 0.06
8219 H 37.62338547593369 58.08179698419291 46.209244833979355 H 0.0 **** 0.06
8220 H 37.00863349623675 57.366435337944246 44.6998721222451 H 0.0 **** 0.06
8221 C 9.430109249206808 60.84432865249033 19.060431133498156 C 0.0 **** -0.24
8222 H 9.577530682987373 61.920984400323206 19.14341329081239 H 0.0 **** 0.06
8223 H 9.080612206706064 60.45158490714458 20.015483446507858 H 0.0 **** 0.06
8224 H 10.3740929822374 60.36829537925189 18.794514262038035 H 0.0 **** 0.06
8225 H 8.68819914522453 60.636948218884655 18.289637089728814 H 0.0 **** 0.06
8226 C 21.920013190719942 66.90324457820527 19.00143359142689 C 0.0 **** -0.24
8227 H 21.579121890691596 67.89549459060889 18.707607595527207 H 0.0 **** 0.06
8228 H 22.530382645013873 66.47802364422125 18.205226973493495 H 0.0 **** 0.06
8229 H 21.056887762501503 66.26193279055396 19.180822652609777 H 0.0 **** 0.06
8230 H 22.51215394558554 66.97724179070595 19.913987430317576 H 0.0 **** 0.06
8231 C 34.97230168150841 34.95539113232229 66.07801747711143 C 0.0 **** -0.24
8232 H 36.05278090254399 34.81532095857817 66.04138762706874 H 0.0 **** 0.06
8233 H 34.47881707701745 33.98454451951176 66.03017874603718 H 0.0 **** 0.06
8234 H 34.655691701383034 35.566668834492404 65.23293261657912 H 0.0 **** 0.06
8235 H 34.702111122321526 35.45471392903151 67.00893561531623 H 0.0 **** 0.06
8236 C 72.32765529029984 15.408723836933461 89.47680970993099 C 0.0 **** -0.24
8237 H 72.04680864198411 15.04236208066925 90.46394644155146 H 0.0 **** 0.06
8238 H 73.0514360546843 16.217699197357916 89.5817385611254 H 0.0 **** 0.06
8239 H 71.44148899820243 15.778394621704422 88.96113293741018 H 0.0 **** 0.06
8240 H 72.77133338127237 14.59733440628429 88.90040478092314 H 0.0 **** 0.06
8241 C 5.089779337428453 19.393883793678786 29.32388272053231 C 0.0 **** -0.24
8242 H 5.466062583866034 20.12673712384907 28.61030186699378 H 0.0 **** 0.06
8243 H 4.057521543763528 19.635224031463995 29.581534760242846 H 0.0 **** 0.06
8244 H 5.7032999079811475 19.417291299326095 30.224230044479214 H 0.0 **** 0.06
8245 H 5.131717902039767 18.399371489974207 28.87990506605439 H 0.0 **** 0.06
8246 C 49.080320863133466 35.13068430276246 45.12347747874662 C 0.0 **** -0.24
8247 H 49.382765835845056 36.16712987690427 44.973553012809724 H 0.0 **** 0.06
8248 H 49.05912952202222 34.91032025650648 46.1913105204716 H 0.0 **** 0.06
8249 H 49.79095374792558 34.469086112080774 44.62916035731117 H 0.0 **** 0.06
8250 H 48.086405141364146 34.97839867523166 44.70213393489326 H 0.0 **** 0.06
8251 C 3.047102562504479 54.357483071452805 91.99954804721196 C 0.0 **** -0.24
8252 H 2.9720693867929846 54.99973369482106 91.12244494205129 H 0.0 **** 0.06
8253 H 2.8823847811129735 53.31971275660014 91.70430286591835 H 0.0 **** 0.06
8254 H 2.2937003669186655 54.651115919612224 92.72989766956766 H 0.0 **** 0.06
8255 H 4.038840968843315 54.45748646814144 92.43968887008145 H 0.0 **** 0.06
8256 C 105.46793469044673 19.158137990111527 78.63662847136266 C 0.0 **** -0.24
8257 H 105.8098791311391 18.337960863094096 78.00454994480936 H 0.0 **** 0.06
8258 H 106.10471092028143 19.224093988934314 79.51940852495375 H 0.0 **** 0.06
8259 H 104.438148179584 18.97502435999192 78.94339690528875 H 0.0 **** 0.06
8260 H 105.52039671452019 20.092307975353464 78.07897013391187 H 0.0 **** 0.06
8261 C 68.07432257154278 0.22784273467163896 95.51172067986124 C 0.0 **** -0.24
8262 H 68.80902356032311 0.9979492248166277 95.27645447405743 H 0.0 **** 0.06
8263 H 68.38685765852142 -0.7188263972511004 95.07126512733709 H 0.0 **** 0.06
8264 H 67.10398848394533 0.5162014594754494 95.10544636455236 H 0.0 **** 0.06
8265 H 67.99729038608331 0.11903850743560263 96.5938964757687 H 0.0 **** 0.06
8266 C 81.49044938569995 53.42316757622178 81.614037441861 C 0.0 **** -0.24
8267 H 82.13119154481058 52.54130793192696 81.60780901565235 H 0.0 **** 0.06
8268 H 81.72201331052239 54.04675056452327 80.74977636806227 H 0.0 **** 0.06
8269 H 81.6639467015579 53.990217381967 82.52880186398471 H 0.0 **** 0.06
8270 H 80.44611505875679 53.113596557656884 81.57021570972427 H 0.0 **** 0.06
8271 C 1.0110070063254852 9.744575816374834 49.60581617475265 C 0.0 **** -0.24
8272 H 1.7211148934194966 8.985534576787416 49.933860245589315 H 0.0 **** 0.06
8273 H 1.2079745641441946 10.67881273545197 50.13402637683816 H 0.0 **** 0.06
8274 H -0.0033810465626515906 9.4112521881666 49.82259697993777 H 0.0 **** 0.06
8275 H 1.1196990130477502 9.903750322187477 48.53273496446567 H 0.0 **** 0.06
8276 C 25.15713457706069 87.3837424392057 84.64437053297371 C 0.0 **** -0.24
8277 H 25.907382560238318 88.09109182392687 84.29309646852721 H 0.0 **** 0.06
8278 H 24.758703226824537 87.72231534493487 85.60119581389989 H 0.0 **** 0.06
8279 H 25.61420341921817 86.4016643301524 84.7683520885547 H 0.0 **** 0.06
8280 H 24.348857479655436 87.31946650999858 83.91603924789382 H 0.0 **** 0.06
8281 C 37.05032154375153 71.28426204679212 3.1499424869251698 C 0.0 **** -0.24
8282 H 37.730414525272856 71.81156107071743 3.8198216314602433 H 0.0 **** 0.06
8283 H 36.09973759480775 71.11544022253294 3.6578806529134624 H 0.0 **** 0.06
8284 H 37.486945721613196 70.32584054388488 2.8689152886128824 H 0.0 **** 0.06
8285 H 36.883213156636494 71.88504544594153 2.2562094160223864 H 0.0 **** 0.06
8286 C 39.292591647158474 59.155269757583824 6.955610498879102 C 0.0 **** -0.24
8287 H 38.711332629319514 58.816480216448156 7.813030068290965 H 0.0 **** 0.06
8288 H 38.902437671581936 58.69599088588137 6.047238034001367 H 0.0 **** 0.06
8289 H 40.336348898521464 58.86890720488475 7.088034303284369 H 0.0 **** 0.06
8290 H 39.22101295460311 60.24025576227814 6.873814180287521 H 0.0 **** 0.06
8291 C 87.92939278911673 68.36824676212603 12.875775573517558 C 0.0 **** -0.24
8292 H 87.85193181483287 68.95014242557485 13.793885009918057 H 0.0 **** 0.06
8293 H 88.73521412641324 67.64023794072095 12.974891231737274 H 0.0 **** 0.06
8294 H 88.14236295861849 69.03565361327263 12.040208354870401 H 0.0 **** 0.06
8295 H 86.98965253567032 67.84791311525807 12.694858996846307 H 0.0 **** 0.06
8296 C 82.5844452882634 63.817060677177096 23.335064284758513 C 0.0 **** -0.24
8297 H 83.23622732147777 64.28323183845028 22.596464027920685 H 0.0 **** 0.06
8298 H 82.54024531612731 64.44329778948958 24.227108152632564 H 0.0 **** 0.06
8299 H 82.97759021749232 62.83519362267005 23.598516140268618 H 0.0 **** 0.06
8300 H 81.58256056474858 63.707329120552885 22.91823363399091 H 0.0 **** 0.06
8301 C 9.986406084488863 76.28363145820038 105.69585549597244 C 0.0 **** -0.24
8302 H 8.943070232958263 76.0977620145967 105.43902942524608 H 0.0 **** 0.06
8303 H 10.63143278925321 75.71613811875409 105.02514498876374 H 0.0 **** 0.06
8304 H 10.168026191926373 75.97342327360184 106.72453752426533 H 0.0 **** 0.06
8305 H 10.201216471924553 77.34725179032134 105.5934982363885 H 0.0 **** 0.06
8306 C 77.27860719055587 34.88209558574832 73.82291334939164 C 0.0 **** -0.24
8307 H 77.53830853454394 35.606164434001364 74.59453838630678 H 0.0 **** 0.06
8308 H 77.62741288403126 33.89322714044184 74.12054318362019 H 0.0 **** 0.06
8309 H 77.7527134584071 35.16717323758898 72.8830996598865 H 0.0 **** 0.06
8310 H 76.19640228568835 34.86243052889371 73.69279578554803 H 0.0 **** 0.06
8311 C 33.98491053774657 101.19018351025016 28.492764448856036 C 0.0 **** -0.24
8312 H 33.465065176757804 100.59675772228167 29.245304412675594 H 0.0 **** 0.06
8313 H 33.27817227324971 101.49992965038467 27.722136688136708 H 0.0 **** 0.06
8314 H 34.7765905227119 100.59225207905112 28.042137664672694 H 0.0 **** 0.06
8315 H 34.41937212270716 102.073155751755 28.963197190291076 H 0.0 **** 0.06
8316 C 77.2799600319112 110.5435985187537 109.02212883202714 C 0.0 **** -0.24
8317 H 77.28542652034378 110.18948543224221 107.99113087599684 H 0.0 **** 0.06
8318 H 76.85318677967103 111.54602145024847 109.05979320000647 H 0.0 **** 0.06
8319 H 78.3011555835709 110.5681106878173 109.40281839565681 H 0.0 **** 0.06
8320 H 76.68070095651802 109.87000077247976 109.63377195571105 H 0.0 **** 0.06
8321 C 48.32873621530651 28.6282172125521 61.58312952645451 C 0.0 **** -0.24
8322 H 48.964693162000934 28.798998787100707 62.452489183011835 H 0.0 **** 0.06
8323 H 47.298880323953796 28.486262650092492 61.91006599407518 H 0.0 **** 0.06
8324 H 48.66849304307775 27.738107112073095 61.054070914178396 H 0.0 **** 0.06
8325 H 48.383193983198574 29.49004538502423 60.91803759120546 H 0.0 **** 0.06
8326 C 18.282243646507226 78.60420446723415 11.867948858032179 C 0.0 **** -0.24
8327 H 19.19004977434014 78.16709303921391 11.4529701483265 H 0.0 **** 0.06
8328 H 17.550696774070786 78.74546286245783 11.072010419678264 H 0.0 **** 0.06
8329 H 18.516039377085406 79.56671471604238 12.321277914269047 H 0.0 **** 0.06
8330 H 17.87081753678393 77.93592795160433 12.62483115965918 H 0.0 **** 0.06
8331 C 83.73507282060979 21.72220725668469 78.88719634364134 C 0.0 **** -0.24
8332 H 83.36868270729445 22.663340596475418 79.29864635496347 H 0.0 **** 0.06
8333 H 83.09220015589608 20.90708024833937 79.21980338083785 H 0.0 **** 0.06
8334 H 84.75354311741364 21.54741937020913 79.23317344173734 H 0.0 **** 0.06
8335 H 83.72446624949009 21.773597220278262 77.79865866298172 H 0.0 **** 0.06
8336 C 24.948797181599105 78.18297138176578 91.61037770624233 C 0.0 **** -0.24
8337 H 24.394801858686606 77.99454295187363 92.53062316228508 H 0.0 **** 0.06
8338 H 24.259646214141128 78.51151840786653 90.83209976622254 H 0.0 **** 0.06
8339 H 25.445214148977925 77.26638893185108 91.29249799068577 H 0.0 **** 0.06
8340 H 25.693921179817323 78.95827393679377 91.78732652004345 H 0.0 **** 0.06
8341 C 70.71622552338252 82.41385950237844 86.82354410788575 C 0.0 **** -0.24
8342 H 70.44952669135405 81.92094025435745 85.8884932560292 H 0.0 **** 0.06
8343 H 71.24465723001654 81.71067749364555 87.46681364357542 H 0.0 **** 0.06
8344 H 69.80977396632522 82.7549597762902 87.32467678660291 H 0.0 **** 0.06
8345 H 71.35842341136299 83.2682493870845 86.61268522856972 H 0.0 **** 0.06
8346 C 21.006600139576392 59.33998204371838 75.42686791776055 C 0.0 **** -0.24
8347 H 22.07930791351012 59.492474740444436 75.54149204394298 H 0.0 **** 0.06
8348 H 20.705620402773064 59.622027231795755 74.41756544661376 H 0.0 **** 0.06
8349 H 20.47220646148645 59.95485775516488 76.15096734556653 H 0.0 **** 0.06
8350 H 20.769070443185484 58.28959433427627 75.59756083968085 H 0.0 **** 0.06
8351 C 28.254250052189036 32.36381702383096 92.75655570964636 C 0.0 **** -0.24
8352 H 28.877081309324808 32.119265684964574 91.89595614404723 H 0.0 **** 0.06
8353 H 27.412263411466 31.672214860729753 92.80346780466361 H 0.0 **** 0.06
8354 H 27.88202431869314 33.38345039789618 92.65793771476882 H 0.0 **** 0.06
8355 H 28.84529064222707 32.27992512778832 93.6680159959073 H 0.0 **** 0.06
8356 C 38.437149735140224 106.20843018247425 90.8366551596269 C 0.0 **** -0.24
8357 H 38.413657545683975 107.29500349809402 90.7529456408127 H 0.0 **** 0.06
8358 H 37.788390299837204 105.89315721714193 91.65513423044109 H 0.0 **** 0.06
8359 H 39.456772725953556 105.8806003647546 91.03428663845904 H 0.0 **** 0.06
8360 H 38.08736524875292 105.76537976219925 89.90427977217058 H 0.0 **** 0.06
8361 C 58.73355465986103 94.69401595009305 81.49447213818348 C 0.0 **** -0.24
8362 H 58.164767148335294 95.26119668754893 82.2304398325784 H 0.0 **** 0.06
8363 H 59.800521985782055 94.82916574058237 81.67603498989838 H 0.0 **** 0.06
8364 H 58.48685780823664 95.04864428857206 80.49392372986671 H 0.0 **** 0.06
8365 H 58.482141346652995 93.6360782597659 81.57768262173782 H 0.0 **** 0.06
8366 C 38.182829308167186 3.661486500829511 69.56784926459908 C 0.0 **** -0.24
8367 H 37.620235764536034 3.3211205626209903 68.698238266077 H 0.0 **** 0.06
8368 H 38.19585552424368 2.8738001362181365 70.32161731568287 H 0.0 **** 0.06
8369 H 37.709256119659074 4.552651801364988 69.98012416060911 H 0.0 **** 0.06
8370 H 39.204095686499215 3.8973543140103857 69.27021350416356 H 0.0 **** 0.06
8371 C 104.88527623976864 81.81605886771035 61.93251254143033 C 0.0 **** -0.24
8372 H 104.95219705959802 82.90255216955615 61.99319752440621 H 0.0 **** 0.06
8373 H 103.90319770643126 81.49329371326007 62.27737209999282 H 0.0 **** 0.06
8374 H 105.65624026677725 81.36887712291093 62.56005671620244 H 0.0 **** 0.06
8375 H 105.03003770891557 81.50148073894303 60.89852729158042 H 0.0 **** 0.06
8376 C 38.6670612507334 26.882201996000504 14.99522952469528 C 0.0 **** -0.24
8377 H 38.6767121966426 27.81816757018362 14.435242814336114 H 0.0 **** 0.06
8378 H 37.908841680219666 26.21797005976191 14.579441365038992 H 0.0 **** 0.06
8379 H 38.436679005685875 27.08863762244914 16.041106265925762 H 0.0 **** 0.06
8380 H 39.64476586605505 26.40750459571518 14.925755119530582 H 0.0 **** 0.06
8381 C 73.47293065375334 36.28721979939894 16.294829468600483 C 0.0 **** -0.24
8382 H 72.54391013268793 36.66623320804405 16.720056950599997 H 0.0 **** 0.06
8383 H 74.15245172331129 37.11926397771077 16.1073397668477 H 0.0 **** 0.06
8384 H 73.25995666259121 35.7718215113843 15.35864765839574 H 0.0 **** 0.06
8385 H 73.93501312525899 35.59135489704374 16.9965606587063 H 0.0 **** 0.06
8386 C 44.31295098165677 93.20281410055179 83.20433808491003 C 0.0 **** -0.24
8387 H 45.34349279911166 92.9588838219259 82.9467137407944 H 0.0 **** 0.06
8388 H 44.30547810740596 93.96829165626133 83.9814951438575 H 0.0 **** 0.06
8389 H 43.80815086156619 92.30859663331324 83.56944721139052 H 0.0 **** 0.06
8390 H 43.796393957192564 93.57672134301379 82.32043088525188 H 0.0 **** 0.06
8391 C 79.8976739387075 73.3740721506395 24.303178879695395 C 0.0 **** -0.24
8392 H 79.36231301323784 73.62413799450604 25.219923423454627 H 0.0 **** 0.06
8393 H 80.40257274090516 74.26249172037467 23.92327017807331 H 0.0 **** 0.06
8394 H 79.1906558439859 73.01096115544522 23.55797991461472 H 0.0 **** 0.06
8395 H 80.63468954032231 72.59932234412719 24.513864564428236 H 0.0 **** 0.06
8396 C 35.48434736595658 42.91946159759968 83.9347838707539 C 0.0 **** -0.24
8397 H 36.54067879122016 43.12257970867731 83.75771410472214 H 0.0 **** 0.06
8398 H 35.07866535123944 43.671762236694875 84.61090779562159 H 0.0 **** 0.06
8399 H 35.374319981365204 41.93148899990059 84.38084754969543 H 0.0 **** 0.06
8400 H 34.945263155726565 42.9526593222393 82.98817579928797 H 0.0 **** 0.06
8401 C 61.29041637997649 20.4945014565341 2.95117654796789 C 0.0 **** -0.24
8402 H 60.59751421045395 21.28396959762569 3.24298366008955 H 0.0 **** 0.06
8403 H 62.25805551201097 20.932655371926135 2.7068706276626244 H 0.0 **** 0.06
8404 H 60.897403398759536 19.97110874494607 2.079047174882575 H 0.0 **** 0.06
8405 H 61.40694462041081 19.791219345596673 3.7747808784990013 H 0.0 **** 0.06
8406 C 29.728015190771856 71.69623131733148 76.05820137203717 C 0.0 **** -0.24
8407 H 29.056085699124083 70.8385990271479 76.04723339057824 H 0.0 **** 0.06
8408 H 30.5824318893969 71.48075310704526 76.69863083941277 H 0.0 **** 0.06
8409 H 29.19740792513454 72.56779836546703 76.44054088679505 H 0.0 **** 0.06
8410 H 30.075075498970307 71.89878177805615 75.04470829735473 H 0.0 **** 0.06
8411 C 40.48073038611099 102.54130000447634 6.873774241634793 C 0.0 **** -0.24
8412 H 40.80977950293075 103.57898276540612 6.9136217632741985 H 0.0 **** 0.06
8413 H 40.10913336248936 102.2403718244741 7.8526248678019535 H 0.0 **** 0.06
8414 H 41.318683536534934 101.90464700410894 6.590825166780533 H 0.0 **** 0.06
8415 H 39.68369175980371 102.44117931225952 6.136199792717873 H 0.0 **** 0.06
8416 C 78.2695411474046 98.31895507886033 91.37128003213235 C 0.0 **** -0.24
8417 H 77.74501346711168 97.42277502356725 91.70350853797802 H 0.0 **** 0.06
8418 H 78.92208036595747 98.67399230307333 92.1690932199408 H 0.0 **** 0.06
8419 H 77.54499689702897 99.09292238416268 91.12319367145642 H 0.0 **** 0.06
8420 H 78.86699539443319 98.0841803339002 90.49048552606595 H 0.0 **** 0.06
8421 C 81.43303258717063 23.118252116966744 16.34131172265478 C 0.0 **** -0.24
8422 H 82.39835453929759 22.962022345097836 16.822533610294442 H 0.0 **** 0.06
8423 H 81.55556445122606 23.074907059567167 15.258866387259701 H 0.0 **** 0.06
8424 H 81.04017629680801 24.095440881881572 16.623486885544494 H 0.0 **** 0.06
8425 H 80.73828730787085 22.341994663729707 16.66067053565388 H 0.0 **** 0.06
8426 C 83.36662357355016 102.49892064792148 31.673107085290013 C 0.0 **** -0.24
8427 H 83.32517065347605 101.43264234055708 31.448620990681235 H 0.0 **** 0.06
8428 H 82.36027075011467 102.91697879022654 31.633709561517577 H 0.0 **** 0.06
8429 H 83.99786478267589 103.00020377166533 30.93973782543432 H 0.0 **** 0.06
8430 H 83.78275302905104 102.6436705184988 32.67052501477849 H 0.0 **** 0.06
8431 C 4.9915827471697725 43.68058407518828 32.48146557484861 C 0.0 **** -0.24
8432 H 3.9065707237462277 43.77949922362154 32.50907750882625 H 0.0 **** 0.06
8433 H 5.272465229943336 42.679054191173975 32.80880592474767 H 0.0 **** 0.06
8434 H 5.440689336599007 44.419354416487664 33.14532955980212 H 0.0 **** 0.06
8435 H 5.344302335285619 43.84256616951507 31.46312555152568 H 0.0 **** 0.06
8436 C 70.48137653767824 38.904162967299925 63.941704826908335 C 0.0 **** -0.24
8437 H 69.93885889563853 38.80140097128222 64.8812165538956 H 0.0 **** 0.06
8438 H 69.80214400733249 38.72059737748771 63.108323971680136 H 0.0 **** 0.06
8439 H 71.29652817102817 38.18109250594941 63.91216404095832 H 0.0 **** 0.06
8440 H 70.88703673200092 39.91328333986168 63.86490869187372 H 0.0 **** 0.06
8441 C 78.35998198474903 106.73351047699094 54.297879531458605 C 0.0 **** -0.24
8442 H 79.44376009649098 106.63556757742492 54.354773201015874 H 0.0 **** 0.06
8443 H 77.965207836073 105.99568427713214 53.59855509904998 H 0.0 **** 0.06
8444 H 78.10417918027252 107.73525188178442 53.95163850242766 H 0.0 **** 0.06
8445 H 77.92803653125169 106.56804586089095 55.28451030447914 H 0.0 **** 0.06
8446 C 2.5980859412446478 69.49838988758981 24.687489103564957 C 0.0 **** -0.24
8447 H 2.0005401887247842 70.38334762058756 24.467249127361242 H 0.0 **** 0.06
8448 H 3.6073154455029766 69.63684261915965 24.2995208224049 H 0.0 **** 0.06
8449 H 2.1423839907041042 68.6267517851465 24.21586152774708 H 0.0 **** 0.06
8450 H 2.63958254657166 69.34810019104464 25.76576166383998 H 0.0 **** 0.06
8451 C 57.695418797990726 44.10754853749336 81.90851644550885 C 0.0 **** -0.24
8452 H 58.577184005428535 43.88819744803402 81.30599592461033 H 0.0 **** 0.06
8453 H 57.57960997502431 45.18746367913826 82.00241720380994 H 0.0 **** 0.06
8454 H 57.813964033688876 43.667664538242605 82.8994038718868 H 0.0 **** 0.06
8455 H 56.81317777228492 43.68648353072308 81.42790465776075 H 0.0 **** 0.06
8456 C 18.652348282161768 74.93600939107846 89.60410162022458 C 0.0 **** -0.24
8457 H 18.152864103910403 75.76016466532495 90.11470365524957 H 0.0 **** 0.06
8458 H 19.698292057961652 74.90045280999351 89.90899190398926 H 0.0 **** 0.06
8459 H 18.59112794012536 75.08661989526549 88.52711824609543 H 0.0 **** 0.06
8460 H 18.164553527012032 73.99765653758449 89.8679878270031 H 0.0 **** 0.06
8461 C 15.498825759035924 33.115876074769574 100.67263531333606 C 0.0 **** -0.24
8462 H 16.037502505402955 32.22510023240801 100.34885836443556 H 0.0 **** 0.06
8463 H 14.44456168030365 33.016182554039176 100.4153530538897 H 0.0 **** 0.06
8464 H 15.913748647879913 33.99218963070621 100.17436099841308 H 0.0 **** 0.06
8465 H 15.601619690845268 33.22882538442974 101.75186911153088 H 0.0 **** 0.06
8466 C 41.90209589450385 51.00192017470688 46.03491113232269 C 0.0 **** -0.24
8467 H 42.53080287235108 50.1344323153376 46.23382580007478 H 0.0 **** 0.06
8468 H 42.26034985843434 51.51191282705642 45.14028531198477 H 0.0 **** 0.06
8469 H 41.9445478309732 51.683163858072064 46.88423472535038 H 0.0 **** 0.06
8470 H 40.87355989592935 50.676283387611896 45.88048283899036 H 0.0 **** 0.06
8471 C 22.946397927389768 30.5176055678631 16.820690812258636 C 0.0 **** -0.24
8472 H 22.132805132523856 31.08234676579984 16.364788513558278 H 0.0 **** 0.06
8473 H 23.276463642690516 29.73808185553493 16.134262286256853 H 0.0 **** 0.06
8474 H 22.597497406519665 30.06236524515588 17.747511938678326 H 0.0 **** 0.06
8475 H 23.77766033750973 31.18878939541323 17.035657755041562 H 0.0 **** 0.06
8476 C 110.17030971893149 65.48527298187491 39.25432573583986 C 0.0 **** -0.24
8477 H 110.02052580308737 64.49422545346357 39.68435524509065 H 0.0 **** 0.06
8478 H 109.2404051288731 65.82659692008724 38.79937941009052 H 0.0 **** 0.06
8479 H 110.9510541431354 65.43650365152985 38.49458335787418 H 0.0 **** 0.06
8480 H 110.46877283025248 66.18066200574538 40.03861751267416 H 0.0 **** 0.06
8481 C 62.604854980375535 5.694329749420703 60.73726989813946 C 0.0 **** -0.24
8482 H 63.09348126921856 5.930429466407233 59.791803335790576 H 0.0 **** 0.06
8483 H 62.22338469163407 4.673086351116865 60.70434355043221 H 0.0 **** 0.06
8484 H 61.777702886806935 6.3853979491643855 60.90118120143336 H 0.0 **** 0.06
8485 H 63.32419074950195 5.788192336707056 61.55103129794185 H 0.0 **** 0.06
8486 C 26.447311838407884 89.00982201041369 71.16799174396095 C 0.0 **** -0.24
8487 H 26.17523414853312 90.0574947464163 71.04445535045096 H 0.0 **** 0.06
8488 H 25.551748281475057 88.4251754283506 71.37998951720402 H 0.0 **** 0.06
8489 H 27.150121785932413 88.91286875966799 71.99580996245429 H 0.0 **** 0.06
8490 H 26.912475689861907 88.64421024926699 70.25253482874977 H 0.0 **** 0.06
8491 C 44.43178680446778 4.370697073822782 26.113710510667108 C 0.0 **** -0.24
8492 H 44.04470132716375 3.845490057057617 26.986342797163815 H 0.0 **** 0.06
8493 H 44.97585407622745 5.258937059235791 26.436173387751438 H 0.0 **** 0.06
8494 H 43.60304054483174 4.664873095330421 25.46943428508371 H 0.0 **** 0.06
8495 H 45.10356534417605 3.7123670827163977 25.562029447776634 H 0.0 **** 0.06
8496 C 109.61915439629965 19.055096187784727 50.23841937377705 C 0.0 **** -0.24
8497 H 108.71846538451013 18.535311348081677 50.56430851446328 H 0.0 **** 0.06
8498 H 110.3462042036738 18.329074132067205 49.87543280084631 H 0.0 **** 0.06
8499 H 110.0435875523005 19.606124205555943 51.07845176495667 H 0.0 **** 0.06
8500 H 109.36755524403097 19.749971798574222 49.437568292464476 H 0.0 **** 0.06
8501 C 72.32881603418309 31.611083213720917 77.74637966544528 C 0.0 **** -0.24
8502 H 71.96909859673235 31.58998404330788 78.77504089058901 H 0.0 **** 0.06
8503 H 73.39441245247116 31.381910523019314 77.7289184534669 H 0.0 **** 0.06
8504 H 72.16271041685161 32.601634515707076 77.32390513149356 H 0.0 **** 0.06
8505 H 71.78849777936739 30.869498924990694 77.15767797866701 H 0.0 **** 0.06
8506 C 24.459453043887777 66.23459596634905 47.665254581647126 C 0.0 **** -0.24
8507 H 25.050511168651354 67.02930396211934 48.12033284038795 H 0.0 **** 0.06
8508 H 23.506009403809884 66.63918251402669 47.32583496703022 H 0.0 **** 0.06
8509 H 24.280843872365466 65.44908762643354 48.39978379237679 H 0.0 **** 0.06
8510 H 25.002139506377745 65.8210213319013 46.81537215189718 H 0.0 **** 0.06
8511 C 52.083511943054305 55.49135239991119 77.98074783023233 C 0.0 **** -0.24
8512 H 52.06227450651431 55.968012815584814 78.96077668272454 H 0.0 **** 0.06
8513 H 53.084775655384306 55.10954185282759 77.78387130975428 H 0.0 **** 0.06
8514 H 51.81502846191688 56.22167115313738 77.21699400580802 H 0.0 **** 0.06
8515 H 51.369021046872035 54.668056483517034 77.9622450488164 H 0.0 **** 0.06
8516 C 33.817039207357084 41.36239150509286 96.453261149315 C 0.0 **** -0.24
8517 H 34.3031171093952 40.38772122982344 96.49434461747721 H 0.0 **** 0.06
8518 H 32.91091002616008 41.34173881829099 97.06014597440793 H 0.0 **** 0.06
8519 H 33.558679562522855 41.59584839503452 95.42098509948356 H 0.0 **** 0.06
8520 H 34.495457712148436 42.1232241376039 96.83895890442346 H 0.0 **** 0.06
8521 C 45.23135034075331 53.722434746537544 39.254773263933004 C 0.0 **** -0.24
8522 H 44.72863949220206 52.755350568268796 39.23964939166342 H 0.0 **** 0.06
8523 H 46.200505318104966 53.63517884848591 38.76250217461276 H 0.0 **** 0.06
8524 H 45.37462226154213 54.04082217255302 40.28718709521516 H 0.0 **** 0.06
8525 H 44.6207217168503 54.45663096913319 38.728713999502844 H 0.0 **** 0.06
8526 C 46.021626133110225 78.18138549604328 33.54553530674275 C 0.0 **** -0.24
8527 H 45.75506475379665 79.23179071911113 33.42861384208493 H 0.0 **** 0.06
8528 H 46.69758979129999 78.0713831567449 34.39344647179294 H 0.0 **** 0.06
8529 H 46.51338724051852 77.8290226825867 32.6388549934758 H 0.0 **** 0.06
8530 H 45.118947260349124 77.5952698914441 33.72122007834395 H 0.0 **** 0.06
8531 C 97.03171581377588 39.95407552561608 37.79313144734033 C 0.0 **** -0.24
8532 H 97.10505029586211 39.85503354879113 36.7102928381953 H 0.0 **** 0.06
8533 H 95.9968898901108 39.8031509583477 38.1029425043962 H 0.0 **** 0.06
8534 H 97.35903409718848 40.94997522395426 38.090109924801254 H 0.0 **** 0.06
8535 H 97.66635224394588 39.20595958266851 38.269325656103376 H 0.0 **** 0.06
8536 C 6.570456211865206 75.4114393585952 13.73874117332457 C 0.0 **** -0.24
8537 H 5.552496030896975 75.68394266650878 13.459650214110866 H 0.0 **** 0.06
8538 H 6.730794278533693 74.35230737785167 13.535997721595322 H 0.0 **** 0.06
8539 H 6.71942564244975 75.60539854829449 14.800457529295613 H 0.0 **** 0.06
8540 H 7.2769888651051815 76.0042142860847 13.158155947655814 H 0.0 **** 0.06
8541 C 59.04074326661039 56.44534538133507 80.52504057968719 C 0.0 **** -0.24
8542 H 58.58249982714111 55.46528928851319 80.39459247779632 H 0.0 **** 0.06
8543 H 59.433224348606046 56.53099845326659 81.53847972444686 H 0.0 **** 0.06
8544 H 58.29270852454967 57.221317183343444 80.35788617299818 H 0.0 **** 0.06
8545 H 59.85359518647746 56.564725039069856 79.8087487515765 H 0.0 **** 0.06
8546 C 10.401430013221656 24.913671211946692 26.214709619558004 C 0.0 **** -0.24
8547 H 11.228559504591587 24.305166187055143 26.579304097264234 H 0.0 **** 0.06
8548 H 9.576894340404607 24.86986157913097 26.926123255433367 H 0.0 **** 0.06
8549 H 10.07011330909421 24.53402107660637 25.248010719366032 H 0.0 **** 0.06
8550 H 10.732676892472995 25.946638001056275 26.10412529350297 H 0.0 **** 0.06
8551 C 100.21468836741928 63.125699924607034 83.26018235415461 C 0.0 **** -0.24
8552 H 99.45354866056311 62.6998821441136 82.60658363679384 H 0.0 **** 0.06
8553 H 99.74254801885064 63.79395775424679 83.98056260982835 H 0.0 **** 0.06
8554 H 100.93516767912948 63.68495341410757 82.6628684880656 H 0.0 **** 0.06
8555 H 100.72834684339398 62.322992843243426 83.79022772496538 H 0.0 **** 0.06
8556 C 23.594863072778963 87.44415521711858 43.468153307586476 C 0.0 **** -0.24
8557 H 22.513273199220748 87.57978646928177 43.46180908227615 H 0.0 **** 0.06
8558 H 23.950753887970336 87.41367949115363 44.49877970633571 H 0.0 **** 0.06
8559 H 24.0682103723656 88.27514812768521 42.94419157172649 H 0.0 **** 0.06
8560 H 23.84621785097778 86.50894326201126 42.96819221994966 H 0.0 **** 0.06
8561 C 11.349820278860506 25.84274267182071 0.7757650091691346 C 0.0 **** -0.24
8562 H 10.506002854758208 26.477290148862725 0.5095259094846654 H 0.0 **** 0.06
8563 H 12.166203915564637 26.010025337891204 0.07268248645962672 H 0.0 **** 0.06
8564 H 11.045151266690283 24.796559200203454 0.7356313535485555 H 0.0 **** 0.06
8565 H 11.683119149875552 26.085106791394292 1.7844374956488451 H 0.0 **** 0.06
8566 C 105.33449445355144 46.80429614665735 102.21049908097498 C 0.0 **** -0.24
8567 H 105.31960261671263 47.84366652853822 101.88193220397564 H 0.0 **** 0.06
8568 H 104.35284329897654 46.533076324012995 102.59967587656496 H 0.0 **** 0.06
8569 H 106.08284413139883 46.681351036401225 102.99398681937477 H 0.0 **** 0.06
8570 H 105.58200763005188 46.16021965990228 101.36691421869936 H 0.0 **** 0.06
8571 C 45.64868749512857 43.7406906147076 78.92296739621571 C 0.0 **** -0.24
8572 H 46.022203900815185 42.931538788214766 78.29550461602992 H 0.0 **** 0.06
8573 H 45.85894416653031 44.69723325125722 78.44557971622771 H 0.0 **** 0.06
8574 H 46.14061353167534 43.70300520304562 79.89501797397003 H 0.0 **** 0.06
8575 H 44.57228525953397 43.629058665577304 79.05665849867614 H 0.0 **** 0.06
8576 C 44.60037531185284 50.02325833917312 10.121269911691257 C 0.0 **** -0.24
8577 H 45.173663410982016 50.06552230229739 9.195482022510888 H 0.0 **** 0.06
8578 H 43.53892362714899 49.931916849558704 9.886585260482889 H 0.0 **** 0.06
8579 H 44.76871978689377 50.933365684550836 10.695665604685615 H 0.0 **** 0.06
8580 H 44.918839379069276 49.159704783382736 10.706455096508463 H 0.0 **** 0.06
8581 C 106.07023464389039 16.114285038126084 39.49078643549038 C 0.0 **** -0.24
8582 H 106.8390876521388 16.510593507636628 40.1542021356397 H 0.0 **** 0.06
8583 H 105.17848565893006 15.87330745535462 40.07104618680095 H 0.0 **** 0.06
8584 H 106.44115257608568 15.21370956550382 39.002321090932 H 0.0 **** 0.06
8585 H 105.82183554963457 16.860951722658612 38.73649041425828 H 0.0 **** 0.06
8586 C 83.09070437818362 84.97036879673281 29.07140319044806 C 0.0 **** -0.24
8587 H 83.30132872303045 84.8680815931533 30.135709733949163 H 0.0 **** 0.06
8588 H 83.76465004278778 84.327383300457 28.50486488682482 H 0.0 **** 0.06
8589 H 83.23828624236724 86.00760167550877 28.770158614859625 H 0.0 **** 0.06
8590 H 82.05880898071905 84.67828813863628 28.875838564750033 H 0.0 **** 0.06
8591 C 45.62286338768931 93.44001894234715 43.68393508446346 C 0.0 **** -0.24
8592 H 45.69086324470038 92.4672030988911 43.19857232426506 H 0.0 **** 0.06
8593 H 45.67619098336658 93.3114570233058 44.76586660959259 H 0.0 **** 0.06
8594 H 44.676830734159495 93.91178620120044 43.42008937924612 H 0.0 **** 0.06
8595 H 46.44842742569321 94.0703074441924 43.35210802571106 H 0.0 **** 0.06
8596 C 42.988469903465564 71.14482293817024 20.235030964574122 C 0.0 **** -0.24
8597 H 43.70468198641729 70.34669884854728 20.036496368857314 H 0.0 **** 0.06
8598 H 41.98349520540169 70.72731264924685 20.282493246509034 H 0.0 **** 0.06
8599 H 43.038151797474335 71.88418592378127 19.43544367417867 H 0.0 **** 0.06
8600 H 43.23125485159072 71.62097013218508 21.185176778243672 H 0.0 **** 0.06
8601 C 80.90940092727905 53.69538810992981 3.1341252101309465 C 0.0 **** -0.24
8602 H 81.50066855706254 53.55164214064408 2.2289420826924697 H 0.0 **** 0.06
8603 H 80.1903735936913 54.498037387964644 2.973989327729953 H 0.0 **** 0.06
8604 H 81.56956311529203 53.958319757177065 3.9608740136909546 H 0.0 **** 0.06
8605 H 80.37986113494239 52.773056435740244 3.3714469096801167 H 0.0 **** 0.06
8606 C 35.77775973971313 70.36270944160776 51.29738823093814 C 0.0 **** -0.24
8607 H 36.61324321336485 70.43853112343703 50.60125377281057 H 0.0 **** 0.06
8608 H 35.00649251677078 71.08004009551664 51.01921513750546 H 0.0 **** 0.06
8609 H 36.12614950068803 70.57659976447769 52.308192006916535 H 0.0 **** 0.06
8610 H 35.366317370244644 69.35419379067599 51.2615822467086 H 0.0 **** 0.06
8611 C 44.24362022007094 37.070611884681966 81.54197884178427 C 0.0 **** -0.24
8612 H 44.46928363348928 36.239319308336434 82.20998813320927 H 0.0 **** 0.06
8613 H 43.411482863878234 37.6465040078736 81.94647902183806 H 0.0 **** 0.06
8614 H 43.97571133276682 36.68350707048873 80.55979793567423 H 0.0 **** 0.06
8615 H 45.120700394553296 37.712458303367555 81.45372171430654 H 0.0 **** 0.06
8616 C 57.188546597374916 6.683654381925464 78.65595922827664 C 0.0 **** -0.24
8617 H 57.26958993551107 5.609092262259054 78.81416437519981 H 0.0 **** 0.06
8618 H 56.2202737645332 7.0323079194078275 79.01495527017236 H 0.0 **** 0.06
8619 H 57.28173902147693 6.901857260058023 77.59167052056513 H 0.0 **** 0.06
8620 H 57.98360947020922 7.193129337399199 79.20214246260393 H 0.0 **** 0.06
8621 C 36.95106833544423 74.21360919573715 23.74362116556526 C 0.0 **** -0.24
8622 H 36.75742810604339 74.86664505660661 22.892482885289823 H 0.0 **** 0.06
8623 H 37.06999520403508 73.18743968070788 23.39466658388153 H 0.0 **** 0.06
8624 H 36.113228595030535 74.26627236753535 24.438811706565843 H 0.0 **** 0.06
8625 H 37.86263894896399 74.53410165570165 24.24870864908536 H 0.0 **** 0.06
8626 C 87.1024706078444 92.46475005063034 45.533538685283986 C 0.0 **** -0.24
8627 H 87.99874437821045 91.8495234733205 45.59980499152476 H 0.0 **** 0.06
8628 H 87.35994881389402 93.50481858690887 45.73697469847758 H 0.0 **** 0.06
8629 H 86.37059951640148 92.12159650275972 46.265219020004764 H 0.0 **** 0.06
8630 H 86.67989278583121 92.38406866358024 44.53144872505396 H 0.0 **** 0.06
8631 C 45.42420132676958 18.636412960067616 52.19184712580284 C 0.0 **** -0.24
8632 H 45.78491089632263 19.258075528072283 51.37288561993739 H 0.0 **** 0.06
8633 H 44.903641945240366 17.76858404470005 51.786783377830375 H 0.0 **** 0.06
8634 H 44.739671447977116 19.214691750478096 52.811836787647735 H 0.0 **** 0.06
8635 H 46.269095652328986 18.305889070510688 52.795422500812435 H 0.0 **** 0.06
8636 C 84.413118853302 27.900010493331422 105.8870758167192 C 0.0 **** -0.24
8637 H 83.7804292712182 27.25177345826387 105.28041413739831 H 0.0 **** 0.06
8638 H 84.29995991800851 27.63681347989376 106.93859999765152 H 0.0 **** 0.06
8639 H 84.11643908401226 28.938674013346827 105.73761012608503 H 0.0 **** 0.06
8640 H 85.45406879221719 27.772897841199494 105.58980938725892 H 0.0 **** 0.06
8641 C 26.733758119514505 101.7167523683051 6.881005833366032 C 0.0 **** -0.24
8642 H 25.700699635174715 101.51527878656611 6.598955735100418 H 0.0 **** 0.06
8643 H 27.154901211229884 102.46428994847514 6.208612493437954 H 0.0 **** 0.06
8644 H 27.31411200146269 100.79603474198541 6.812236550196175 H 0.0 **** 0.06
8645 H 26.76504827315705 102.08948980264131 7.904723300942095 H 0.0 **** 0.06
8646 C 5.960324801509927 2.4852556094675267 49.12877682104893 C 0.0 **** -0.24
8647 H 6.894412287633941 3.0372405779527067 49.236544769564276 H 0.0 **** 0.06
8648 H 5.19925804422769 2.932511004162084 49.76934595032709 H 0.0 **** 0.06
8649 H 6.117476540802613 1.447223057277137 49.42033888764847 H 0.0 **** 0.06
8650 H 5.6322538936794615 2.5255034601081405 48.09073912670442 H 0.0 **** 0.06
8651 C 15.11881638847041 26.61947984625283 18.394625213273542 C 0.0 **** -0.24
8652 H 14.229129296608917 27.18680611112171 18.118258420902578 H 0.0 **** 0.06
8653 H 15.074628376707924 25.63071324422964 17.93829008903279 H 0.0 **** 0.06
8654 H 15.162834386136517 26.518666451149727 19.47825601721918 H 0.0 **** 0.06
8655 H 16.006625041553733 27.144210902733903 18.041781277795423 H 0.0 **** 0.06
8656 C 17.564445840383016 55.53802979806494 44.57875127271463 C 0.0 **** -0.24
8657 H 17.725434895528355 56.590203408840864 44.34237025208214 H 0.0 **** 0.06
8658 H 16.877651576573932 55.10354275294594 43.851923637821045 H 0.0 **** 0.06
8659 H 17.13917438240844 55.4513482810259 45.57924979694206 H 0.0 **** 0.06
8660 H 18.51662413981035 55.007862515180165 44.541752358183345 H 0.0 **** 0.06
8661 C 29.038460083433222 69.09729662062276 7.391913331193848 C 0.0 **** -0.24
8662 H 29.477032268028907 68.63795222537425 8.278723897979189 H 0.0 **** 0.06
8663 H 28.818147371176835 68.3251246088195 6.6550324665952 H 0.0 **** 0.06
8664 H 29.74295692240355 69.81382358091793 6.9698007384637 H 0.0 **** 0.06
8665 H 28.118445599941523 69.61198484270781 7.667755825505543 H 0.0 **** 0.06
8666 C 92.61695673386163 83.21410193205132 103.2284221481636 C 0.0 **** -0.24
8667 H 91.65185514993294 82.78196625457981 102.96375740527313 H 0.0 **** 0.06
8668 H 92.48631396051962 83.92154648117709 104.04809859252731 H 0.0 **** 0.06
8669 H 93.03267064609338 83.73164108257639 102.36342449382398 H 0.0 **** 0.06
8670 H 93.29719541890933 82.42109788425296 103.53744252224888 H 0.0 **** 0.06
8671 C 6.640444887755576 40.42053137131994 56.680248742490676 C 0.0 **** -0.24
8672 H 6.7457422557279685 39.465652576470816 57.1967347156463 H 0.0 **** 0.06
8673 H 5.725451435101599 40.41391267291385 56.087759150867896 H 0.0 **** 0.06
8674 H 7.497583046927398 40.57486655305615 56.02408976238178 H 0.0 **** 0.06
8675 H 6.594372489871278 41.22573132489871 57.41293425499339 H 0.0 **** 0.06
8676 C 83.26491508422023 56.98320289840407 51.512353759065235 C 0.0 **** -0.24
8677 H 83.2865675833131 58.00601414018798 51.88921725113818 H 0.0 **** 0.06
8678 H 83.73922623663704 56.94874023903302 50.531597935997866 H 0.0 **** 0.06
8679 H 82.23109694894161 56.64874830967029 51.428158128325265 H 0.0 **** 0.06
8680 H 83.80276001496415 56.33169856584981 52.19990345496055 H 0.0 **** 0.06
8681 C 87.02079933408356 75.74928882777884 48.104161072912746 C 0.0 **** -0.24
8682 H 87.3295391121685 74.8461143524431 47.57813984689243 H 0.0 **** 0.06
8683 H 86.3070704223847 75.48922962776041 48.886092017838514 H 0.0 **** 0.06
8684 H 86.55378874946535 76.43799713729854 47.39925485873808 H 0.0 **** 0.06
8685 H 87.89369307184904 76.22516966543104 48.55255459549778 H 0.0 **** 0.06
8686 C 64.46373334064435 80.88594148183458 104.4470407805182 C 0.0 **** -0.24
8687 H 63.797542103059186 81.62398789633589 103.99968244042131 H 0.0 **** 0.06
8688 H 64.1012619162048 79.8840473230928 104.21793759204714 H 0.0 **** 0.06
8689 H 64.48643883165317 81.02585525585148 105.52802105499306 H 0.0 **** 0.06
8690 H 65.46792157212712 81.01074881732906 104.04357481066526 H 0.0 **** 0.06
8691 C 53.21772889515182 34.22489123085296 81.3988980479491 C 0.0 **** -0.24
8692 H 53.24497456628717 35.23486589762865 80.98920718330825 H 0.0 **** 0.06
8693 H 52.207547037648595 34.000290432907434 81.7425954079763 H 0.0 **** 0.06
8694 H 53.91160781337754 34.154581552181526 82.2358707291036 H 0.0 **** 0.06
8695 H 53.505388508584645 33.5124294167498 80.62641064290068 H 0.0 **** 0.06
8696 C 4.371686711610906 62.62235589874575 30.40728918579603 C 0.0 **** -0.24
8697 H 4.376073424757081 63.66088941900534 30.73942267568816 H 0.0 **** 0.06
8698 H 5.218176573256471 62.09750575782314 30.849235943490214 H 0.0 **** 0.06
8699 H 4.450427123329817 62.58936361237994 29.319932176634097 H 0.0 **** 0.06
8700 H 3.4430112074160633 62.14513593539476 30.719533680886812 H 0.0 **** 0.06
8701 C 8.707104533898303 38.51782566297368 109.41545728151925 C 0.0 **** -0.24
8702 H 7.806821666444762 38.76947132141379 108.85509406017994 H 0.0 **** 0.06
8703 H 8.891046058458414 39.283475351571724 110.1699106329969 H 0.0 **** 0.06
8704 H 9.557306390055942 38.46826647789629 108.73478522505832 H 0.0 **** 0.06
8705 H 8.574219954796718 37.55135021617184 109.9013622287948 H 0.0 **** 0.06
8706 C 36.446546945150544 105.1348995628084 14.371200529274262 C 0.0 **** -0.24
8707 H 36.062074385306175 105.44244390213372 15.343559542658738 H 0.0 **** 0.06
8708 H 35.990845685217096 105.74633535494539 13.591528527022717 H 0.0 **** 0.06
8709 H 36.204466838842905 104.08609153318699 14.199582731645876 H 0.0 **** 0.06
8710 H 37.528816490205486 105.26685183419931 14.351350781261004 H 0.0 **** 0.06
8711 C 60.46963107420791 109.63011306697976 48.9486810668634 C 0.0 **** -0.24
8712 H 60.1562111435191 109.30181072722198 47.95754471611548 H 0.0 **** 0.06
8713 H 59.646317892988975 110.15510830479339 49.43345437073913 H 0.0 **** 0.06
8714 H 61.324172981378695 110.29958397680687 48.85666204086789 H 0.0 **** 0.06
8715 H 60.74982039243724 108.76310268072046 49.54653777618978 H 0.0 **** 0.06
8716 C 47.23596808688021 102.83666643221272 63.13505374551639 C 0.0 **** -0.24
8717 H 46.14902166044942 102.75908992029969 63.12686507916794 H 0.0 **** 0.06
8718 H 47.567976861470676 103.17337742305824 64.1179055600843 H 0.0 **** 0.06
8719 H 47.55525596996757 103.55377008545082 62.379217587182154 H 0.0 **** 0.06
8720 H 47.67192196998687 101.86157748431094 62.91748653371104 H 0.0 **** 0.06
8721 C 17.299366846941354 60.667760889057035 38.547909701440034 C 0.0 **** -0.24
8722 H 18.041400736838852 60.647963800400746 39.34686938481772 H 0.0 **** 0.06
8723 H 17.561909493745162 61.443842774103246 37.82885684771301 H 0.0 **** 0.06
8724 H 16.317445416153078 60.879605840246384 38.968903360245434 H 0.0 **** 0.06
8725 H 17.279071193720853 59.700277831714956 38.04713199894675 H 0.0 **** 0.06
8726 C 78.6206206213597 95.55255009565961 70.50958619583412 C 0.0 **** -0.24
8727 H 78.12714548735977 96.15138936458783 71.27431915287588 H 0.0 **** 0.06
8728 H 78.6618659713759 96.11531187102275 69.5772800703333 H 0.0 **** 0.06
8729 H 78.06084910455897 94.62952727145345 70.35328990901695 H 0.0 **** 0.06
8730 H 79.63282611868138 95.31217378866849 70.83476921064045 H 0.0 **** 0.06
8731 C 36.87570267426625 63.43545216263017 106.60806032191618 C 0.0 **** -0.24
8732 H 36.792675688400664 63.22687721064649 105.54215147816379 H 0.0 **** 0.06
8733 H 36.12765461198396 64.17722832040313 106.89281653413039 H 0.0 **** 0.06
8734 H 37.87175259502621 63.82112675294967 106.82607502786684 H 0.0 **** 0.06
8735 H 36.7095597042873 62.51747191341923 107.17211131657456 H 0.0 **** 0.06
8736 C 7.12092573934396 72.79572864094234 37.81508805705016 C 0.0 **** -0.24
8737 H 6.625447756051173 72.89960192387105 36.85022869026574 H 0.0 **** 0.06
8738 H 8.193106478532428 72.67014002924174 37.662180483032664 H 0.0 **** 0.06
8739 H 6.723533640185138 71.92340829449591 38.335580658929175 H 0.0 **** 0.06
8740 H 6.940979854163629 73.6883684654585 38.414940871906516 H 0.0 **** 0.06
8741 C 55.28157686169331 56.11264471968119 20.163726876296067 C 0.0 **** -0.24
8742 H 55.96333809190699 55.731636952772675 19.40322411513037 H 0.0 **** 0.06
8743 H 54.857776242177266 57.05975979253422 19.829003357290276 H 0.0 **** 0.06
8744 H 55.82639593506923 56.2667898163526 21.094827928731206 H 0.0 **** 0.06
8745 H 54.480224139522846 55.39293074258265 20.327031111631527 H 0.0 **** 0.06
8746 C 63.588862378658405 49.81708232105727 49.25787070687424 C 0.0 **** -0.24
8747 H 64.48043724326273 49.25508501900762 49.53406985838166 H 0.0 **** 0.06
8748 H 62.75382948907331 49.12875951948389 49.119788745327334 H 0.0 **** 0.06
8749 H 63.772596137771515 50.355342266725756 48.327731526162125 H 0.0 **** 0.06
8750 H 63.34658813831578 50.52796978201393 50.04798712496267 H 0.0 **** 0.06
8751 C 65.79433527478352 87.1908512311784 52.24873810341148 C 0.0 **** -0.24
8752 H 66.00557755774815 87.88178235263636 51.432136209867 H 0.0 **** 0.06
8753 H 66.22391418170236 86.21535118800271 52.01915718598639 H 0.0 **** 0.06
8754 H 64.71606188823753 87.09368260914111 52.37152022222358 H 0.0 **** 0.06
8755 H 66.23197170707465 87.5727755480264 53.1704266846271 H 0.0 **** 0.06
8756 C 19.576232720938886 100.00684154944203 56.861017933437836 C 0.0 **** -0.24
8757 H 19.096495870833902 100.20340227323267 57.82014107379774 H 0.0 **** 0.06
8758 H 19.14144112138527 99.11278611594172 56.413564133291004 H 0.0 **** 0.06
8759 H 20.645072084873288 99.85345852606262 57.01412527664189 H 0.0 **** 0.06
8760 H 19.422937697179478 100.85726585098864 56.197114443499345 H 0.0 **** 0.06
8761 C 97.39213889709652 2.53123116768208 86.29817509543723 C 0.0 **** -0.24
8762 H 98.32922991093918 3.0446638942493394 86.51239922067178 H 0.0 **** 0.06
8763 H 96.56171839507097 3.1029234382567665 86.71329255117175 H 0.0 **** 0.06
8764 H 97.4105647552887 1.5386456253086465 86.74764493288242 H 0.0 **** 0.06
8765 H 97.26674860024883 2.4400733292019936 85.2192940781743 H 0.0 **** 0.06
8766 C 92.66829166871662 0.5340297584146629 47.99883500482235 C 0.0 **** -0.24
8767 H 92.09618883181508 -0.3137820070636126 47.623452226029904 H 0.0 **** 0.06
8768 H 92.47064532628696 1.408130153657269 47.37766981154141 H 0.0 **** 0.06
8769 H 93.7329528915779 0.29770730378245425 47.96521909524484 H 0.0 **** 0.06
8770 H 92.37515820219562 0.7437619335583081 49.02682033799182 H 0.0 **** 0.06
8771 C 92.71317302275092 91.30712229829905 37.666048052229314 C 0.0 **** -0.24
8772 H 93.01186190636732 92.11446334248659 36.9965563212626 H 0.0 **** 0.06
8773 H 93.18670464762891 90.37825916712683 37.34662534922134 H 0.0 **** 0.06
8774 H 91.63027479288856 91.19276821026119 37.634627848145044 H 0.0 **** 0.06
8775 H 93.02504729835483 91.54462956990831 38.682270654574296 H 0.0 **** 0.06
8776 C 58.34333099082089 7.9965465344796485 20.169322837898335 C 0.0 **** -0.24
8777 H 58.94037077271685 7.165559179547813 19.79125890365117 H 0.0 **** 0.06
8778 H 58.993517608188085 8.849804928509485 20.365221436680827 H 0.0 **** 0.06
8779 H 57.848776005082534 7.696647136287908 21.09328953409363 H 0.0 **** 0.06
8780 H 57.59335263463581 8.271606149023825 19.427908384763384 H 0.0 **** 0.06
8781 C 90.95706569749598 23.61703080775925 43.635668110583595 C 0.0 **** -0.24
8782 H 89.95019261582087 23.370328233860107 43.29941649346085 H 0.0 **** 0.06
8783 H 91.37462429216251 22.771792139222242 44.18318356045705 H 0.0 **** 0.06
8784 H 90.918163530702 24.489044934448458 44.28834391545411 H 0.0 **** 0.06
8785 H 91.5846206304006 23.83769691198151 42.77273650175249 H 0.0 **** 0.06
8786 C 28.928178450338756 17.576942610254378 2.6102049344352736 C 0.0 **** -0.24
8787 H 29.152689568594667 17.82658215552823 3.647228361856918 H 0.0 **** 0.06
8788 H 29.858635505790176 17.45003978230079 2.057611931117009 H 0.0 **** 0.06
8789 H 28.34541897183854 18.381386660643216 2.1619239162177735 H 0.0 **** 0.06
8790 H 28.355374791984502 16.650822745991547 2.5759318958162396 H 0.0 **** 0.06
8791 C 107.00754866573087 110.2129468550323 10.422486582888425 C 0.0 **** -0.24
8792 H 107.83503894057147 110.3954399512112 9.736502710935255 H 0.0 **** 0.06
8793 H 107.40119371056834 109.93733231234134 11.401288901091363 H 0.0 **** 0.06
8794 H 106.38911564045961 109.40199299153198 10.038133694583465 H 0.0 **** 0.06
8795 H 106.40619180922904 111.11716009544047 10.513607657545833 H 0.0 **** 0.06
8796 C 47.77023599720772 27.407139968135326 72.12776795930753 C 0.0 **** -0.24
8797 H 48.82041678448386 27.212491256840906 72.34597872702855 H 0.0 **** 0.06
8798 H 47.643132758526946 28.45775300962515 71.86447193933046 H 0.0 **** 0.06
8799 H 47.168224197693306 27.177158436152226 73.00637593656637 H 0.0 **** 0.06
8800 H 47.451339953375495 26.782001855506792 71.29348419090027 H 0.0 **** 0.06
8801 C 19.126039255139972 47.275994202555836 81.43715268704364 C 0.0 **** -0.24
8802 H 20.200970404966256 47.371949491521185 81.28689858522442 H 0.0 **** 0.06
8803 H 18.604901860195753 47.987811102768106 80.79578358556695 H 0.0 **** 0.06
8804 H 18.885328059600965 47.480715505601395 82.47960026948363 H 0.0 **** 0.06
8805 H 18.813410109432766 46.262546994307684 81.1843572439212 H 0.0 **** 0.06
8806 C 34.578019427842605 94.12834770364908 43.45786244242987 C 0.0 **** -0.24
8807 H 35.0452333076729 94.46216697668535 42.53164832582547 H 0.0 **** 0.06
8808 H 33.78585613920444 94.82392902390552 43.73549115038372 H 0.0 **** 0.06
8809 H 35.32671133141551 94.09466130444291 44.250348702609074 H 0.0 **** 0.06
8810 H 34.155807306048985 93.13391817047453 43.3149655113653 H 0.0 **** 0.06
8811 C 9.64316291029138 38.01123887638465 103.17153715899494 C 0.0 **** -0.24
8812 H 9.81511825207241 39.056680016892585 102.91126610363331 H 0.0 **** 0.06
8813 H 8.92117654911894 37.578811194780144 102.47938494485103 H 0.0 **** 0.06
8814 H 9.255331211393099 37.94964218339186 104.18833268978301 H 0.0 **** 0.06
8815 H 10.583358078113946 37.46211931741374 103.10663285212523 H 0.0 **** 0.06
8816 C 35.77601514921446 32.25333735706539 60.38102114175271 C 0.0 **** -0.24
8817 H 36.34699396708487 31.622697703812776 59.700217569098555 H 0.0 **** 0.06
8818 H 36.455704693702444 32.91793514410415 60.916675658781884 H 0.0 **** 0.06
8819 H 35.241550329672236 31.627295629294508 61.0952485728949 H 0.0 **** 0.06
8820 H 35.06105888499263 32.847523844958175 59.81179298311184 H 0.0 **** 0.06
8821 C 68.6308044747261 68.10310626733006 2.8084147346751447 C 0.0 **** -0.24
8822 H 68.84483204090533 67.36704205419969 2.0338113638958104 H 0.0 **** 0.06
8823 H 67.78559384262263 67.76496175120651 3.407857812020074 H 0.0 **** 0.06
8824 H 68.38657115538986 69.05902019763106 2.342861860288946 H 0.0 **** 0.06
8825 H 69.50599226566732 68.2231032122966 3.446472540682093 H 0.0 **** 0.06
8826 C 63.79413055036852 67.23871719356649 86.80932111082274 C 0.0 **** -0.24
8827 H 62.84207832081793 67.58946379301052 86.41065694149897 H 0.0 **** 0.06
8828 H 64.22492412198402 68.00873763275939 87.44877644095524 H 0.0 **** 0.06
8829 H 64.47542566280656 67.02628440480039 85.98598462729228 H 0.0 **** 0.06
8830 H 63.6316702853518 66.33206206908417 87.39072354978038 H 0.0 **** 0.06
8831 C 88.67237070125336 23.941072517199558 50.315638335867106 C 0.0 **** -0.24
8832 H 88.18970781618032 23.88656103701578 49.34035595633753 H 0.0 **** 0.06
8833 H 89.37610980511388 23.11497451682851 50.419321102362346 H 0.0 **** 0.06
8834 H 87.91638341712269 23.87425615985103 51.09851736326152 H 0.0 **** 0.06
8835 H 89.20608396026222 24.886708487774882 50.404960491386646 H 0.0 **** 0.06
8836 C 85.12204390617353 30.590626563410638 79.43647982384002 C 0.0 **** -0.24
8837 H 84.24208822896787 31.233412344848034 79.45254716913522 H 0.0 **** 0.06
8838 H 85.9012174712538 31.027248412965207 80.06085360782393 H 0.0 **** 0.06
8839 H 85.4848313349882 30.498016336035732 78.41244789280533 H 0.0 **** 0.06
8840 H 84.85910019076692 29.604518222167087 79.81878814685281 H 0.0 **** 0.06
8841 C 31.883860474160514 2.379109433800096 76.03834660066521 C 0.0 **** -0.24
8842 H 32.41522257870727 1.9565907961457185 76.89142870241425 H 0.0 **** 0.06
8843 H 31.570918999816968 3.3968943156231575 76.27274654285033 H 0.0 **** 0.06
8844 H 31.0057387667334 1.7699142169160922 75.8214313059305 H 0.0 **** 0.06
8845 H 32.5414113292544 2.391309197388779 75.17010084999933 H 0.0 **** 0.06
8846 C 54.62235801978451 17.922890521024165 61.34644986253636 C 0.0 **** -0.24
8847 H 54.49138837162814 18.42298259837621 60.38711906975652 H 0.0 **** 0.06
8848 H 55.34076908875026 17.11038503275625 61.237863041477965 H 0.0 **** 0.06
8849 H 53.66485956284332 17.519964817274207 61.67902977386268 H 0.0 **** 0.06
8850 H 54.99036212456319 18.638809392890362 62.08111703851171 H 0.0 **** 0.06
8851 C 81.82256952194234 25.098716207407193 41.40269833776006 C 0.0 **** -0.24
8852 H 82.82960533872179 25.321519440279474 41.04917132723972 H 0.0 **** 0.06
8853 H 81.10077257284951 25.694020190178975 40.8417855463228 H 0.0 **** 0.06
8854 H 81.74719204207275 25.339813755908807 42.462689330001126 H 0.0 **** 0.06
8855 H 81.61181928124341 24.03955609040318 41.25446231053411 H 0.0 **** 0.06
8856 C 60.45081229067506 44.29112939573103 52.37715563977595 C 0.0 **** -0.24
8857 H 60.55452215193674 43.35905093515128 51.82137892612943 H 0.0 **** 0.06
8858 H 59.745186218906326 44.943760048735086 51.862142185375006 H 0.0 **** 0.06
8859 H 61.420179633607916 44.78368019320539 52.44358851767922 H 0.0 **** 0.06
8860 H 60.082776535030945 44.0760116870236 53.38024824597553 H 0.0 **** 0.06
8861 C 83.79064211210749 70.08989992956356 68.20376212190945 C 0.0 **** -0.24
8862 H 83.47195375840683 71.04907815480152 67.79620282993415 H 0.0 **** 0.06
8863 H 84.1872832969675 70.23463799751778 69.20892052723428 H 0.0 **** 0.06
8864 H 84.56565463027687 69.66442182446235 67.56551157732275 H 0.0 **** 0.06
8865 H 82.93902825861116 69.41122778241726 68.24335578520981 H 0.0 **** 0.06
8866 C 62.56227357471937 46.97721587361178 82.9157996330447 C 0.0 **** -0.24
8867 H 62.65316502502924 47.71498544038337 82.11827059389122 H 0.0 **** 0.06
8868 H 62.409765894260204 45.98955712250739 82.48033167379447 H 0.0 **** 0.06
8869 H 61.712856319984894 47.23110470259553 83.54912772332275 H 0.0 **** 0.06
8870 H 63.473636010852715 46.975384670854 83.51368246920971 H 0.0 **** 0.06
8871 C 68.87301746816597 85.71049099855361 79.826800985191 C 0.0 **** -0.24
8872 H 69.30393793350406 85.00745971511486 80.54044820610522 H 0.0 **** 0.06
8873 H 68.0266278887666 85.24290063752136 79.3229778974839 H 0.0 **** 0.06
8874 H 69.62744108693758 85.98827612381137 79.09081854400225 H 0.0 **** 0.06
8875 H 68.53505156442677 86.60226352866391 80.35538643089595 H 0.0 **** 0.06
8876 C 21.581914963380484 25.26951009509772 38.26480456716973 C 0.0 **** -0.24
8877 H 22.231472218526108 24.612394980500696 38.84231022667518 H 0.0 **** 0.06
8878 H 21.734695820037416 26.30146349485414 38.58368701499313 H 0.0 **** 0.06
8879 H 20.54192987596656 24.98820563507075 38.42999701505772 H 0.0 **** 0.06
8880 H 21.819865466122508 25.177365607374263 37.20521848293805 H 0.0 **** 0.06
8881 C 89.33593813957756 68.46779687844216 67.5029079877559 C 0.0 **** -0.24
8882 H 89.32602581436561 69.54717842008557 67.65553165224526 H 0.0 **** 0.06
8883 H 89.31514904298726 67.96339514458384 68.46908780999888 H 0.0 **** 0.06
8884 H 90.24069714364092 68.1854978398739 66.96465421493482 H 0.0 **** 0.06
8885 H 88.46205146622879 68.17519529887244 66.92063645214193 H 0.0 **** 0.06
8886 C 59.510862029848724 29.582937086855964 19.980437942031983 C 0.0 **** -0.24
8887 H 59.78858106156585 30.445423584313602 20.586140758651027 H 0.0 **** 0.06
8888 H 60.303706534451095 28.836731381732307 20.025861923443074 H 0.0 **** 0.06
8889 H 59.36420790931582 29.896946040505895 18.946583154795178 H 0.0 **** 0.06
8890 H 58.58544939567959 29.1532887605224 20.364318804361176 H 0.0 **** 0.06
8891 C 83.87554872511421 109.75645091830884 35.48499054416331 C 0.0 **** -0.24
8892 H 83.94517204897939 109.12402869072638 36.36941996261743 H 0.0 **** 0.06
8893 H 83.35996422458035 109.21562134661264 34.690707984497834 H 0.0 **** 0.06
8894 H 84.87865617957783 110.02411504310325 35.15080922295928 H 0.0 **** 0.06
8895 H 83.32040819981064 110.66207995522569 35.728037333819174 H 0.0 **** 0.06
8896 C 58.038448652842824 95.66475550087472 84.89076095143501 C 0.0 **** -0.24
8897 H 59.09261574253014 95.40008212469118 84.80239503979693 H 0.0 **** 0.06
8898 H 57.43510447106834 94.94135613215599 84.34251659588162 H 0.0 **** 0.06
8899 H 57.87785974900625 96.66038092262625 84.47685520238345 H 0.0 **** 0.06
8900 H 57.749610792225 95.65734808735152 85.94144954393364 H 0.0 **** 0.06
8901 C 102.6849742164568 32.24357097335522 106.08492705743583 C 0.0 **** -0.24
8902 H 103.06112233565773 33.24603531470347 105.88010620359623 H 0.0 **** 0.06
8903 H 102.33694643855978 32.18944363799339 107.11697147642664 H 0.0 **** 0.06
8904 H 103.48345555535815 31.51735533418055 105.93217844617305 H 0.0 **** 0.06
8905 H 101.85837253625147 32.02144960654375 105.41045210354767 H 0.0 **** 0.06
8906 C 13.779921324935401 45.53401121858791 7.092184633528234 C 0.0 **** -0.24
8907 H 14.487839660318372 45.42553356051042 6.2701706518550395 H 0.0 **** 0.06
8908 H 14.325234149871832 45.59425540061423 8.034306874945116 H 0.0 **** 0.06
8909 H 13.112262681536507 44.6725753720378 7.112530580560133 H 0.0 **** 0.06
8910 H 13.195695846661309 46.443288174755494 6.950714707156237 H 0.0 **** 0.06
8911 C 15.705829999394311 104.73324061731469 13.484731847246977 C 0.0 **** -0.24
8912 H 16.373495160508526 105.49871903252338 13.08766784083626 H 0.0 **** 0.06
8913 H 15.42619015578617 104.04604126017655 12.68591562580761 H 0.0 **** 0.06
8914 H 14.811171324104386 105.2065659576346 13.888036519434237 H 0.0 **** 0.06
8915 H 16.21465501712821 104.18351918213753 14.27650022963519 H 0.0 **** 0.06
8916 C 4.255394612365464 33.01175671182827 107.62221246593687 C 0.0 **** -0.24
8917 H 3.723993562013362 32.693375838594015 108.51910224631959 H 0.0 **** 0.06
8918 H 3.5571971691430093 33.49173057486066 106.93735767005744 H 0.0 **** 0.06
8919 H 4.701740263772322 32.143109846302096 107.13797809921081 H 0.0 **** 0.06
8920 H 5.040079211411978 33.7171160206415 107.89643149360064 H 0.0 **** 0.06
8921 C 94.56931609275298 108.20842864879728 81.69326810194342 C 0.0 **** -0.24
8922 H 95.52839012634485 108.30301474144906 82.20264930281398 H 0.0 **** 0.06
8923 H 94.73754534809807 107.95670001183551 80.6459322595283 H 0.0 **** 0.06
8924 H 94.0295546533316 109.15342229515942 81.75837073884203 H 0.0 **** 0.06
8925 H 93.98336020516216 107.42119736840878 82.16716927149062 H 0.0 **** 0.06
8926 C 76.89656669386534 102.59778844740073 63.69275040104692 C 0.0 **** -0.24
8927 H 77.3911090550447 101.81389707370552 63.119125175755286 H 0.0 **** 0.06
8928 H 75.8601492094233 102.3155796626261 63.87567576670514 H 0.0 **** 0.06
8929 H 76.9250046840516 103.5322116759076 63.13091562239293 H 0.0 **** 0.06
8930 H 77.41139872988867 102.73061635582454 64.64396984134943 H 0.0 **** 0.06
8931 C 54.59489017930622 4.9230327049557445 103.4860332022899 C 0.0 **** -0.24
8932 H 54.43594838324901 5.9932404831518795 103.62228518391056 H 0.0 **** 0.06
8933 H 55.481752036698424 4.763297178980167 102.873313602994 H 0.0 **** 0.06
8934 H 53.727345004062585 4.48827934553222 102.9899771593183 H 0.0 **** 0.06
8935 H 54.7332253068831 4.450356896530678 104.45828095385602 H 0.0 **** 0.06
8936 C 96.0196102203341 50.283670851870994 66.81177614049139 C 0.0 **** -0.24
8937 H 95.86390531431272 49.28684625078287 66.40118346203208 H 0.0 **** 0.06
8938 H 96.44142748905962 50.932234646917664 66.04350277582807 H 0.0 **** 0.06
8939 H 96.70692075230693 50.22580169514126 67.65589173318716 H 0.0 **** 0.06
8940 H 95.06602506404012 50.69102037417292 67.14839383410177 H 0.0 **** 0.06
8941 C 28.56745500091823 107.38386036026519 96.09874645816475 C 0.0 **** -0.24
8942 H 29.437495544856652 107.88316277961023 95.67240120515021 H 0.0 **** 0.06
8943 H 27.814880317415096 108.12694295986415 96.36258984027342 H 0.0 **** 0.06
8944 H 28.86535781372777 106.8352240256846 96.99226636250347 H 0.0 **** 0.06
8945 H 28.152743345894386 106.68935992015813 95.36778535132169 H 0.0 **** 0.06
8946 C 40.293900879248895 26.990901464544436 81.52187062808173 C 0.0 **** -0.24
8947 H 39.97772428807889 28.023543870352427 81.67145600982576 H 0.0 **** 0.06
8948 H 39.52093545714689 26.31634961820798 81.89169498247963 H 0.0 **** 0.06
8949 H 41.22277063920089 26.813513943940393 82.06462324735787 H 0.0 **** 0.06
8950 H 40.45456293646231 26.811396667913357 80.45906611300865 H 0.0 **** 0.06
8951 C 70.47767222652664 73.2920621043354 55.558200802875746 C 0.0 **** -0.24
8952 H 69.83214912204207 73.2775367987659 54.679891813575985 H 0.0 **** 0.06
8953 H 70.01883342530664 73.90276645903323 56.33527727217062 H 0.0 **** 0.06
8954 H 71.44668044966954 73.7115194560765 55.29014249078958 H 0.0 **** 0.06
8955 H 70.6110158072446 72.2752770418409 55.9266914045529 H 0.0 **** 0.06
8956 C 19.831775144421556 10.87937289411737 68.71167153222416 C 0.0 **** -0.24
8957 H 19.70488018145545 10.031786999067798 68.03869640984897 H 0.0 **** 0.06
8958 H 20.83087478976634 10.851081228788807 69.14744814048902 H 0.0 **** 0.06
8959 H 19.087061814681476 10.826517399162267 69.5065892288651 H 0.0 **** 0.06
8960 H 19.70340258700037 11.807509167659386 68.15531890758007 H 0.0 **** 0.06
8961 C 18.279259077456857 4.5491414212491605 15.95944508356095 C 0.0 **** -0.24
8962 H 18.64908148758599 3.6668711447669455 16.482160389420926 H 0.0 **** 0.06
8963 H 18.08752735215944 4.299155026035649 14.916145289295656 H 0.0 **** 0.06
8964 H 19.026099724222036 5.342331866350786 16.012007213206374 H 0.0 **** 0.06
8965 H 17.355686032563653 4.8884567688606 16.42777255951856 H 0.0 **** 0.06
8966 C 7.018455909035696 105.23808744062957 21.874810253727503 C 0.0 **** -0.24
8967 H 7.112684776978895 105.13857297266878 22.956597002707753 H 0.0 **** 0.06
8968 H 7.112784295409199 106.28885562820162 21.598019394361472 H 0.0 **** 0.06
8969 H 6.044508703503745 104.86482538696774 21.559153821081367 H 0.0 **** 0.06
8970 H 7.80449176520324 104.6619134962353 21.386980431419033 H 0.0 **** 0.06
8971 C 18.131879519443462 30.001848071861616 66.42184264670067 C 0.0 **** -0.24
8972 H 19.038015855049064 29.39654936216982 66.39253127520203 H 0.0 **** 0.06
8973 H 18.345182158095362 30.950839192877027 66.91568033424426 H 0.0 **** 0.06
8974 H 17.357335682362454 29.469935021613622 66.97438865014863 H 0.0 **** 0.06
8975 H 17.786984382266965 30.19006871078608 65.40477032720798 H 0.0 **** 0.06
8976 C 75.09845612840866 71.90616251318232 33.47995552021314 C 0.0 **** -0.24
8977 H 75.53410737958615 72.65091587529142 32.81534130792039 H 0.0 **** 0.06
8978 H 75.31935789611634 70.90739310867886 33.101647596133034 H 0.0 **** 0.06
8979 H 74.01866592000454 72.04734749966818 33.525360686508236 H 0.0 **** 0.06
8980 H 75.52151594383014 72.01820656044615 34.47900523510134 H 0.0 **** 0.06
8981 C 4.686176651129074 88.3611801625429 40.017152081890174 C 0.0 **** -0.24
8982 H 3.913666155306643 87.59349195498076 39.9803682561589 H 0.0 **** 0.06
8983 H 5.617932672055517 87.95897743678293 39.61787087778134 H 0.0 **** 0.06
8984 H 4.838282817071857 88.67413029051943 41.04945804159752 H 0.0 **** 0.06
8985 H 4.374595223795282 89.21780237857713 39.41870979483332 H 0.0 **** 0.06
8986 C 43.80591053092445 64.92703474873781 73.450395492037 C 0.0 **** -0.24
8987 H 44.89319883800388 64.84823014341464 73.44712149593406 H 0.0 **** 0.06
8988 H 43.51502259543054 65.9387099639165 73.16455062922483 H 0.0 **** 0.06
8989 H 43.42905506218159 64.70803577805702 74.4493214776786 H 0.0 **** 0.06
8990 H 43.388329980184096 64.21373004103896 72.7396827379548 H 0.0 **** 0.06
8991 C 30.996318419543798 66.12922881057074 43.11324725377411 C 0.0 **** -0.24
8992 H 30.119642988423863 66.48190579926313 42.56995004007389 H 0.0 **** 0.06
8993 H 31.169928176972093 66.76873737254664 43.97865477628172 H 0.0 **** 0.06
8994 H 31.86654523528466 66.16050191367923 42.45709022243216 H 0.0 **** 0.06
8995 H 30.828689599420727 65.10495203249401 43.44584066949988 H 0.0 **** 0.06
8996 C 55.38264811894922 45.643289786902244 101.24354574762212 C 0.0 **** -0.24
8997 H 56.377489452686376 45.28168634582005 101.50427246484811 H 0.0 **** 0.06
8998 H 54.889746293970745 44.91645963166161 100.59748965539411 H 0.0 **** 0.06
8999 H 55.4682092273963 46.59559669134407 100.72082540629563 H 0.0 **** 0.06
9000 H 54.79592084247537 45.778860074866714 102.15264067175232 H 0.0 **** 0.06
9001 C 27.827730364203887 57.21020188983708 99.45831954922646 C 0.0 **** -0.24
9002 H 27.735434054628087 57.17250441410183 98.37296706516459 H 0.0 **** 0.06
9003 H 28.881965721706422 57.267611511523086 99.7309910111363 H 0.0 **** 0.06
9004 H 27.38758091980594 56.312447550431905 99.89243859630356 H 0.0 **** 0.06
9005 H 27.306358911578627 58.089593709975546 99.83694282838476 H 0.0 **** 0.06
9006 C 40.8459729677806 6.522176367750415 69.15781092757283 C 0.0 **** -0.24
9007 H 39.978278008232024 5.863072789506548 69.13354877681445 H 0.0 **** 0.06
9008 H 41.741172152253256 5.9368104150807195 69.3735746371251 H 0.0 **** 0.06
9009 H 40.709019266084056 7.2751944827262935 69.9341653278442 H 0.0 **** 0.06
9010 H 40.956415380654676 7.012816380235053 68.19111937958917 H 0.0 **** 0.06
9011 C 52.57862985330948 8.174132460101262 7.582845718922414 C 0.0 **** -0.24
9012 H 53.26911135089222 8.254554962245109 6.743740710252382 H 0.0 **** 0.06
9013 H 53.12404948469691 8.313772500369481 8.516335853243206 H 0.0 **** 0.06
9014 H 52.11270181093414 7.189340510227197 7.577409929005924 H 0.0 **** 0.06
9015 H 51.8087045794918 8.941204450514974 7.494610750542847 H 0.0 **** 0.06
9016 C 105.01727975769855 40.128919077790684 69.22198661213747 C 0.0 **** -0.24
9017 H 106.05251909323943 40.16056512405019 68.88372823554772 H 0.0 **** 0.06
9018 H 104.87328016957915 40.85851023083475 70.01836752447336 H 0.0 **** 0.06
9019 H 104.78770737950317 39.13127561482724 69.59613868000379 H 0.0 **** 0.06
9020 H 104.35552869989861 40.36573242949941 68.38803051324513 H 0.0 **** 0.06
9021 C 14.795380102789967 22.057252177818945 95.15427085525204 C 0.0 **** -0.24
9022 H 15.106338295158128 21.038738779451485 94.92208949251199 H 0.0 **** 0.06
9023 H 15.6765668949209 22.678072230823457 95.31884325771671 H 0.0 **** 0.06
9024 H 14.180953971679681 22.053123764203708 96.05410149132365 H 0.0 **** 0.06
9025 H 14.217661249401072 22.45907393679729 94.32204917945589 H 0.0 **** 0.06
9026 C 42.13295758575822 83.0004448790923 27.864201170465748 C 0.0 **** -0.24
9027 H 42.61492523265056 83.47648547343198 28.71844252891333 H 0.0 **** 0.06
9028 H 42.889089635274146 82.72232010009776 27.129199997823434 H 0.0 **** 0.06
9029 H 41.424962120757336 83.69508063535477 27.412169844387165 H 0.0 **** 0.06
9030 H 41.60318236475352 82.10707111470862 28.19745685510871 H 0.0 **** 0.06
9031 C 20.319671513961083 66.4631385824929 110.51956664832103 C 0.0 **** -0.24
9032 H 19.962990477759632 65.84660386115688 111.3448619439531 H 0.0 **** 0.06
9033 H 21.321413153801757 66.82995539023715 110.74696482601395 H 0.0 **** 0.06
9034 H 19.64542734398387 67.30827338693082 110.37998260413598 H 0.0 **** 0.06
9035 H 20.349161876350706 65.86711762862359 109.60719276953537 H 0.0 **** 0.06
9036 C 62.45238113236644 83.29820227762161 95.51841651838512 C 0.0 **** -0.24
9037 H 62.9960913630498 82.35362971649353 95.49624435062842 H 0.0 **** 0.06
9038 H 62.348305628037735 83.63240162057164 96.55072065180985 H 0.0 **** 0.06
9039 H 61.46422807936068 83.158010652996 95.07994348969652 H 0.0 **** 0.06
9040 H 63.00118405317312 84.04546849941184 94.94695419938026 H 0.0 **** 0.06
9041 C 23.55418432842839 37.00263017586212 57.98241176959877 C 0.0 **** -0.24
9042 H 22.580089862118257 36.624296230983305 58.2921085873044 H 0.0 **** 0.06
9043 H 24.21925279351666 37.04308167467417 58.84536795161739 H 0.0 **** 0.06
9044 H 23.43981130314762 38.0025302304779 57.565120062384494 H 0.0 **** 0.06
9045 H 23.977578836663554 36.33942020110857 57.227810965731095 H 0.0 **** 0.06
9046 C 71.21098265586592 11.834623620561786 3.483099877401685 C 0.0 **** -0.24
9047 H 70.34489073062865 11.974795370426065 2.8364706336961376 H 0.0 **** 0.06
9048 H 71.57573011918998 12.806463423108283 3.8155941121177364 H 0.0 **** 0.06
9049 H 71.99658534509712 11.320504328076936 2.9299385373401066 H 0.0 **** 0.06
9050 H 70.92449805219152 11.23761489481629 4.348589829993145 H 0.0 **** 0.06
9051 C 64.84426091371785 86.11764626048807 32.085339908709926 C 0.0 **** -0.24
9052 H 65.10553307336801 86.7017584454237 31.203517651444997 H 0.0 **** 0.06
9053 H 65.30712001140319 85.13260046673832 32.01742801618616 H 0.0 **** 0.06
9054 H 63.761596325336484 86.00780069933103 32.14190880181667 H 0.0 **** 0.06
9055 H 65.20516146582492 86.62787322342021 32.97880787564719 H 0.0 **** 0.06
9056 C 99.97025560799375 57.5729906570582 90.23078183430454 C 0.0 **** -0.24
9057 H 100.37855741888063 58.30439973108264 89.53311992156354 H 0.0 **** 0.06
9058 H 99.09368159011547 57.99263138524822 90.72505444790885 H 0.0 **** 0.06
9059 H 100.72383648476506 57.32248062272305 90.9768208895561 H 0.0 **** 0.06
9060 H 99.68407614118075 56.67274759813745 89.68773999835363 H 0.0 **** 0.06
9061 C 47.59381023752894 105.83739963622783 79.68223633542846 C 0.0 **** -0.24
9062 H 47.85967998018447 106.84092802929167 80.01529159384734 H 0.0 **** 0.06
9063 H 47.80022123843503 105.7410987683442 78.61609872950555 H 0.0 **** 0.06
9064 H 46.533428678809514 105.66230197360714 79.8660284128531 H 0.0 **** 0.06
9065 H 48.183666084839786 105.10451820633844 80.23404761948336 H 0.0 **** 0.06
9066 C 34.313755551450754 101.5263189207131 0.8992520055815589 C 0.0 **** -0.24
9067 H 34.49724596148465 102.51620913777455 0.4814214646373216 H 0.0 **** 0.06
9068 H 33.291853061297275 101.47564007929913 1.2747392549320153 H 0.0 **** 0.06
9069 H 35.01131026075757 101.34141557160245 1.7162231901333342 H 0.0 **** 0.06
9070 H 34.45431690966521 100.7735452096073 0.12337573214905717 H 0.0 **** 0.06
9071 C 19.37250479630223 109.10621414576363 90.29788964030126 C 0.0 **** -0.24
9072 H 18.659238224601904 109.29707090753091 91.09980561664585 H 0.0 **** 0.06
9073 H 18.84420502224989 108.71302899343867 89.42828305832069 H 0.0 **** 0.06
9074 H 20.111259083187182 108.37878560013068 90.63378326617135 H 0.0 **** 0.06
9075 H 19.874124479909828 110.03609056955035 90.02893557778575 H 0.0 **** 0.06
9076 C 100.00938404084665 106.30392572560346 109.37801822477121 C 0.0 **** -0.24
9077 H 99.33031692595861 106.85633960683036 110.02805478236306 H 0.0 **** 0.06
9078 H 99.6427323606006 106.34414745091951 108.35229433751061 H 0.0 **** 0.06
9079 H 100.0607082233937 105.26566444702944 109.7051161503372 H 0.0 **** 0.06
9080 H 101.00240539185911 106.74991341706912 109.42759921619191 H 0.0 **** 0.06
9081 C 7.987352788970043 7.744187561504717 102.42551867143288 C 0.0 **** -0.24
9082 H 7.841281899385848 6.839188944265302 103.01562930029036 H 0.0 **** 0.06
9083 H 7.0806624191405945 7.957826075293028 101.85857516161838 H 0.0 **** 0.06
9084 H 8.820513861343017 7.599348675860526 101.73889943196309 H 0.0 **** 0.06
9085 H 8.205365434349048 8.579938379942178 103.09078163591676 H 0.0 **** 0.06
9086 C 68.20591618027525 63.16533975213247 23.180243113822016 C 0.0 **** -0.24
9087 H 68.67303507215833 63.088176155636916 24.161378876904802 H 0.0 **** 0.06
9088 H 67.215816135402 63.60952386283583 23.283486111058433 H 0.0 **** 0.06
9089 H 68.11435964188954 62.170965552424434 22.742810715054418 H 0.0 **** 0.06
9090 H 68.82008023084977 63.79133256289913 22.533389018547243 H 0.0 **** 0.06
9091 C 104.42762395675877 99.26667458742679 48.04049458719243 C 0.0 **** -0.24
9092 H 105.51199347435238 99.15871011137511 48.073482131924806 H 0.0 **** 0.06
9093 H 103.99824763892244 98.90263136836748 48.97484641318337 H 0.0 **** 0.06
9094 H 104.03012683520447 98.68791598595433 47.20722499624341 H 0.0 **** 0.06
9095 H 104.17207343694739 100.3179313433809 47.90782999559576 H 0.0 **** 0.06
9096 C 105.84911079303112 72.17637896806627 105.75737888637141 C 0.0 **** -0.24
9097 H 105.42971244818096 73.00194836796248 105.183189128213 H 0.0 **** 0.06
9098 H 106.06296899685043 72.51251714426257 106.77240478365536 H 0.0 **** 0.06
9099 H 106.77054892567983 71.83603700956678 105.28471001651171 H 0.0 **** 0.06
9100 H 105.13259084765934 71.35559477172836 105.78868704763447 H 0.0 **** 0.06
9101 C 68.08666085478205 89.62143634473165 17.205687275848675 C 0.0 **** -0.24
9102 H 68.90400752740936 90.33057634277725 17.071156021040082 H 0.0 **** 0.06
9103 H 67.29283916582722 90.08910595520679 17.787467264173472 H 0.0 **** 0.06
9104 H 68.45403111736022 88.74052170779005 17.733549284482137 H 0.0 **** 0.06
9105 H 67.69877914454679 89.32566809229735 16.23152682087536 H 0.0 **** 0.06
9106 C 64.42700513781435 3.691570154686957 74.11105863296046 C 0.0 **** -0.24
9107 H 63.96629739917233 3.4415603483719934 73.15568165088439 H 0.0 **** 0.06
9108 H 63.66097861040811 4.045632240996767 74.80116235348106 H 0.0 **** 0.06
9109 H 65.17132196313395 4.474203704884431 73.96028071857182 H 0.0 **** 0.06
9110 H 64.90929459479418 2.8059498358346673 74.52430824536964 H 0.0 **** 0.06
9111 C 104.25223317843103 29.741272512619787 3.4212654782869976 C 0.0 **** -0.24
9112 H 103.66348026524714 28.914412581543843 3.81808203251245 H 0.0 **** 0.06
9113 H 103.64717447083854 30.31239621511324 2.716925771762746 H 0.0 **** 0.06
9114 H 105.13162226565309 29.34950382531983 2.9112921463545263 H 0.0 **** 0.06
9115 H 104.56620969598838 30.38957499124598 4.240233395233034 H 0.0 **** 0.06
9116 C 52.85687237157538 53.828160129457615 48.42079553783469 C 0.0 **** -0.24
9117 H 52.29453186820217 53.38802807421001 47.59666404593463 H 0.0 **** 0.06
9118 H 53.91469094654656 53.59154361754929 48.30518311571893 H 0.0 **** 0.06
9119 H 52.494270731902304 53.42193902352719 49.36516474908677 H 0.0 **** 0.06
9120 H 52.72308826553791 54.91000872003468 48.41521135971675 H 0.0 **** 0.06
9121 C 98.59344827330138 47.20474326279674 3.2604589189974433 C 0.0 **** -0.24
9122 H 98.00167671564924 46.97626711593716 2.374645308086116 H 0.0 **** 0.06
9123 H 98.3980409557453 46.4587207498962 4.031158051509237 H 0.0 **** 0.06
9124 H 98.32077035105512 48.19241617081968 3.633480036589333 H 0.0 **** 0.06
9125 H 99.65234181156187 47.19347350791088 3.003754502067409 H 0.0 **** 0.06
9126 C 34.513451128526754 57.71876735010676 103.45426882584013 C 0.0 **** -0.24
9127 H 34.38722467549269 58.25129867022258 102.51205549197189 H 0.0 **** 0.06
9128 H 35.208125247686894 56.89008730260383 103.31196615287976 H 0.0 **** 0.06
9129 H 33.54935337063387 57.33246125848876 103.78555098171358 H 0.0 **** 0.06
9130 H 34.909754218698595 58.400226865503555 104.20673909027983 H 0.0 **** 0.06
9131 C 29.916429060472808 78.32185004560239 109.11922648584226 C 0.0 **** -0.24
9132 H 29.22932748230025 78.65606897728424 109.896611114281 H 0.0 **** 0.06
9133 H 29.57434859217011 78.68776931194054 108.15071741675635 H 0.0 **** 0.06
9134 H 29.945720347349976 77.2322746873229 109.1056141120585 H 0.0 **** 0.06
9135 H 30.913481357642183 78.71032501834907 109.32382996337057 H 0.0 **** 0.06
9136 C 9.604164129774134 106.801053228864 37.230831723060945 C 0.0 **** -0.24
9137 H 9.165497985292603 107.5208248492208 37.92218154634766 H 0.0 **** 0.06
9138 H 10.532344493483066 106.4127719795686 37.65139048037713 H 0.0 **** 0.06
9139 H 9.812410567317627 107.29185464569301 36.280183987935146 H 0.0 **** 0.06
9140 H 8.905247462630413 105.97979361557137 37.070835178469 H 0.0 **** 0.06
9141 C 36.121637418058384 9.624279633793265 33.34545900881912 C 0.0 **** -0.24
9142 H 36.412626862607226 8.979562031139125 34.17487633208253 H 0.0 **** 0.06
9143 H 36.809100821353695 10.467057078643506 33.281194520781185 H 0.0 **** 0.06
9144 H 35.108190299097146 9.99265122634111 33.510253215406095 H 0.0 **** 0.06
9145 H 36.154252038443076 9.056322522559185 32.41561184623137 H 0.0 **** 0.06
9146 C 55.2332565441732 14.422797602371176 54.354139311141296 C 0.0 **** -0.24
9147 H 55.102999095605924 14.87795037843388 55.33550857639506 H 0.0 **** 0.06
9148 H 55.00154159369538 15.154101229059819 53.580027625941284 H 0.0 **** 0.06
9149 H 54.56470876750046 13.567865390842783 54.25872726380135 H 0.0 **** 0.06
9150 H 56.26525434776954 14.090489926320146 54.24274424286358 H 0.0 **** 0.06
9151 C 101.7026888676344 40.866446655907936 61.41592433358181 C 0.0 **** -0.24
9152 H 102.0678452008654 41.70382334498855 60.82044560472832 H 0.0 **** 0.06
9153 H 100.65374947575043 40.684731619000374 61.1822268377515 H 0.0 **** 0.06
9154 H 101.80377816892586 41.10248608926021 62.47476521838371 H 0.0 **** 0.06
9155 H 102.2866657853827 39.97472180521888 61.1841732324022 H 0.0 **** 0.06
9156 C 59.19038743490175 51.505288957029684 45.618690181446084 C 0.0 **** -0.24
9157 H 59.33514868990224 52.00797312677095 46.57514747489245 H 0.0 **** 0.06
9158 H 58.659277972952935 50.566746425427525 45.77758760707644 H 0.0 **** 0.06
9159 H 60.15998651512717 51.302578796660654 45.164303864433464 H 0.0 **** 0.06
9160 H 58.606483095610685 52.146188075166044 44.95734547292096 H 0.0 **** 0.06
9161 C 42.83368648956991 83.91651807485327 2.6894005805978214 C 0.0 **** -0.24
9162 H 43.043155229675435 84.41212873832653 1.7417447244904949 H 0.0 **** 0.06
9163 H 42.74696003846969 82.84209073671313 2.525628844918323 H 0.0 **** 0.06
9164 H 41.8996258803478 84.29921882725881 3.1005740703469247 H 0.0 **** 0.06
9165 H 43.645531206565764 84.11314719776067 3.388976758004203 H 0.0 **** 0.06
9166 C 8.23285975048745 27.269642129838928 77.9910869720299 C 0.0 **** -0.24
9167 H 7.991080144886894 27.766047464637722 77.05135025807226 H 0.0 **** 0.06
9168 H 8.358738686284866 28.017232440839564 78.7745944565246 H 0.0 **** 0.06
9169 H 9.15707187606725 26.7037860925484 77.87572839208235 H 0.0 **** 0.06
9170 H 7.423226222890506 26.591700865423576 78.26157344745167 H 0.0 **** 0.06
9171 C 86.1552840627661 85.57748851642211 80.09901759321428 C 0.0 **** -0.24
9172 H 85.50688323368905 86.370566006713 79.72515766685551 H 0.0 **** 0.06
9173 H 87.13024062926706 85.64968173528098 79.61613085073458 H 0.0 **** 0.06
9174 H 85.70927012606779 84.60891892517313 79.87659194757687 H 0.0 **** 0.06
9175 H 86.2743325160379 85.68488687500411 81.17676605515054 H 0.0 **** 0.06
9176 C 51.30660495963096 20.397675763608973 19.656941439435712 C 0.0 **** -0.24
9177 H 52.391562810044576 20.410956137236987 19.551875561697443 H 0.0 **** 0.06
9178 H 50.937289075528554 19.387628519291106 19.47437866915169 H 0.0 **** 0.06
9179 H 50.86434750738209 21.082485875015113 18.933639863407564 H 0.0 **** 0.06
9180 H 51.034604865680876 20.70758714322697 20.665442588290546 H 0.0 **** 0.06
9181 C 30.403542126893598 49.75703763829449 3.2580199198258697 C 0.0 **** -0.24
9182 H 30.958303759900616 49.28049024320694 2.44918687701562 H 0.0 **** 0.06
9183 H 31.086262881772427 50.001015757321966 4.071810906092651 H 0.0 **** 0.06
9184 H 29.632820084437327 49.07617689818443 3.6206229617473014 H 0.0 **** 0.06
9185 H 29.93660693061753 50.67031634814799 2.889486009035636 H 0.0 **** 0.06
9186 C 102.88879483145098 109.45664623251679 18.79589129692897 C 0.0 **** -0.24
9187 H 103.3438597148849 109.20890311898347 17.836712454082544 H 0.0 **** 0.06
9188 H 102.15367225535846 110.24853071507152 18.65539769543696 H 0.0 **** 0.06
9189 H 103.66078416759183 109.7951412333037 19.487645863080388 H 0.0 **** 0.06
9190 H 102.39854524867997 108.57259685115753 19.20422669338879 H 0.0 **** 0.06
9191 C 16.24027549945265 95.68456226399562 3.732481061650603 C 0.0 **** -0.24
9192 H 17.078504257877825 95.12490420202411 3.3190369087733558 H 0.0 **** 0.06
9193 H 16.440383206005606 96.75381866810284 3.6475722665714585 H 0.0 **** 0.06
9194 H 16.11068153599365 95.42185260112086 4.782115160423771 H 0.0 **** 0.06
9195 H 15.332787354752043 95.43943877857717 3.181757522757664 H 0.0 **** 0.06
9196 C 24.065454407853263 108.5139394015511 66.43382030806976 C 0.0 **** -0.24
9197 H 24.828282263929946 109.29174015470524 66.41550808303873 H 0.0 **** 0.06
9198 H 23.780134121921925 108.26163609167139 65.41176542481372 H 0.0 **** 0.06
9199 H 23.191628228365634 108.87405797887412 66.97692633463123 H 0.0 **** 0.06
9200 H 24.46187918682832 107.62767590516245 66.92919202370638 H 0.0 **** 0.06
9201 C 56.446517022045775 46.78444638451546 104.45234706943495 C 0.0 **** -0.24
9202 H 56.641850120668 45.83277348849248 103.95822015651315 H 0.0 **** 0.06
9203 H 55.80305670843609 46.62001722307576 105.31651695762675 H 0.0 **** 0.06
9204 H 55.95185796799996 47.46029623085664 103.75421586779544 H 0.0 **** 0.06
9205 H 57.38898965345718 47.22422150739567 104.7782732898751 H 0.0 **** 0.06
9206 C 51.41545872236941 31.320450078196018 38.440692953413645 C 0.0 **** -0.24
9207 H 51.3158970038624 32.35140783152531 38.77986738188184 H 0.0 **** 0.06
9208 H 50.424885236756325 30.88053351951507 38.318057688438614 H 0.0 **** 0.06
9209 H 51.97888688265539 30.748114700401572 39.178309185130956 H 0.0 **** 0.06
9210 H 51.94230334681936 31.300077112440874 37.48698682087468 H 0.0 **** 0.06
9211 C 75.01897699917728 52.63267036130372 48.09501728623953 C 0.0 **** -0.24
9212 H 75.06778969409798 52.86953920308228 47.03193345546617 H 0.0 **** 0.06
9213 H 75.92728091783513 52.98047659797753 48.586444304070845 H 0.0 **** 0.06
9214 H 74.92658020682957 51.5540766598261 48.22276781529598 H 0.0 **** 0.06
9215 H 74.1534795488216 53.12652240052517 48.53774418041146 H 0.0 **** 0.06
9216 C 105.69848264754592 105.6181842487031 71.38108573945044 C 0.0 **** -0.24
9217 H 106.26020991283781 106.55129353667354 71.42561969848322 H 0.0 **** 0.06
9218 H 104.84914489445316 105.67329186637839 72.06231571728244 H 0.0 **** 0.06
9219 H 106.34609521503705 104.79060749686407 71.67207793389377 H 0.0 **** 0.06
9220 H 105.33998169472693 105.45836105493852 70.36461129101008 H 0.0 **** 0.06
9221 C 108.61570650226103 6.207986550108302 79.99210924276332 C 0.0 **** -0.24
9222 H 107.59757146604552 6.59066077290214 80.06044809866461 H 0.0 **** 0.06
9223 H 109.03526351993217 6.111139993112033 80.99359633666134 H 0.0 **** 0.06
9224 H 109.22426529387 6.896320637736551 79.40739648517464 H 0.0 **** 0.06
9225 H 108.60406322645393 5.230706091100927 79.50771048300783 H 0.0 **** 0.06
9226 C 94.0460758099922 91.34402472894294 3.2669244985435864 C 0.0 **** -0.24
9227 H 93.60957736504008 91.71600654325607 2.3401087895646606 H 0.0 **** 0.06
9228 H 94.37101136044862 90.31266014728885 3.1272507542371883 H 0.0 **** 0.06
9229 H 93.30309680029069 91.38744853657607 4.062463454002668 H 0.0 **** 0.06
9230 H 94.90394270317563 91.96124083759628 3.5367067803552814 H 0.0 **** 0.06
9231 C 67.44136822023535 82.2946766058342 60.10760833936514 C 0.0 **** -0.24
9232 H 67.38821807276076 81.57034391834175 60.92060647518343 H 0.0 **** 0.06
9233 H 66.52927039401766 82.24025480454107 59.51245995100311 H 0.0 **** 0.06
9234 H 68.30151892928387 82.06986899517395 59.47684765935283 H 0.0 **** 0.06
9235 H 67.54538756731995 83.29768567352842 60.521248895229846 H 0.0 **** 0.06
9236 C 70.86659313972339 70.38251438648228 87.63562534328281 C 0.0 **** -0.24
9237 H 70.95204447839325 70.76829280229325 86.61945515779104 H 0.0 **** 0.06
9238 H 70.93966300474773 71.20760700683684 88.34426326465535 H 0.0 **** 0.06
9239 H 71.66998543027165 69.66973775744032 87.8225586282158 H 0.0 **** 0.06
9240 H 69.90461962072732 69.8842380246272 87.75524282372629 H 0.0 **** 0.06
9241 C 5.771084650885701 95.30877790563227 64.71803387042314 C 0.0 **** -0.24
9242 H 6.041940453359588 96.20126514621711 64.15426940493185 H 0.0 **** 0.06
9243 H 5.490813952956458 94.51357886576187 64.02703780094015 H 0.0 **** 0.06
9244 H 4.928252230196172 95.53519513441421 65.3727617462618 H 0.0 **** 0.06
9245 H 6.621467430043751 94.98650967497548 65.31874348079995 H 0.0 **** 0.06
9246 C 94.85518048217693 9.2035033103801 57.86729857767125 C 0.0 **** -0.24
9247 H 94.64330279602751 10.206113171503233 57.49672333402464 H 0.0 **** 0.06
9248 H 94.30268441221659 9.03326926013969 58.791297597008366 H 0.0 **** 0.06
9249 H 95.92392992377287 9.105460607508192 58.05924654043332 H 0.0 **** 0.06
9250 H 94.551367312889 8.468456514164899 57.12150937670381 H 0.0 **** 0.06
9251 C 69.54257648238794 53.15638277635969 54.85127904801061 C 0.0 **** -0.24
9252 H 70.25969292951586 53.32097521911538 55.65458906785892 H 0.0 **** 0.06
9253 H 69.36748741965114 52.087388080268965 54.731918799145916 H 0.0 **** 0.06
9254 H 69.93869107188209 53.56619144807365 53.92191860157493 H 0.0 **** 0.06
9255 H 68.6036647618873 53.6529696588417 55.09549199916586 H 0.0 **** 0.06
9256 C 108.73675857387668 94.35013227730774 72.32665473156635 C 0.0 **** -0.24
9257 H 109.0516711864242 93.52880557011383 71.68288285995493 H 0.0 **** 0.06
9258 H 108.23720918000613 95.11027870103605 71.72629439444424 H 0.0 **** 0.06
9259 H 109.61056804548153 94.78583545999103 72.81172534955647 H 0.0 **** 0.06
9260 H 108.04970712808087 93.97553011330409 73.08449389006662 H 0.0 **** 0.06
9261 C 89.18087269094809 76.95265154121428 33.702919714929976 C 0.0 **** -0.24
9262 H 89.4900686578925 76.80405984552881 34.73740319980084 H 0.0 **** 0.06
9263 H 89.0994065520772 75.98618001600263 33.20550862546469 H 0.0 **** 0.06
9264 H 89.918928573736 77.56712563570159 33.18734155980923 H 0.0 **** 0.06
9265 H 88.21299014580887 77.45451500459747 33.683420431804336 H 0.0 **** 0.06
9266 C 83.51011948553253 50.32919554610382 55.6675656982581 C 0.0 **** -0.24
9267 H 82.7862476167991 50.76042673097879 56.359058948546895 H 0.0 **** 0.06
9268 H 83.37138939750213 49.24835058415525 55.624138451077705 H 0.0 **** 0.06
9269 H 84.52059089085444 50.5522980643224 56.01379779953834 H 0.0 **** 0.06
9270 H 83.36368482988668 50.75552161458887 54.67607963522769 H 0.0 **** 0.06
9271 C 87.61277235423745 35.958438217329956 102.54349628896156 C 0.0 **** -0.24
9272 H 88.5498845464005 36.48263437367868 102.35633364543082 H 0.0 **** 0.06
9273 H 86.85726091670409 36.302702095009295 101.83647320795157 H 0.0 **** 0.06
9274 H 87.27968211182133 36.16217959315014 103.56074209556138 H 0.0 **** 0.06
9275 H 87.76601247371264 34.88666219528315 102.41956756715022 H 0.0 **** 0.06
9276 C 11.05460220914361 45.257286581815094 3.8636103010194347 C 0.0 **** -0.24
9277 H 11.341319122680488 45.877008316820934 3.0138790937521094 H 0.0 **** 0.06
9278 H 10.457289718458469 45.847890040147604 4.558703178087768 H 0.0 **** 0.06
9279 H 11.949839738294457 44.896045028459355 4.368758783102976 H 0.0 **** 0.06
9280 H 10.468006822517268 44.407464795438045 3.5123004714124733 H 0.0 **** 0.06
9281 C 33.943038180452675 54.20776110357542 97.78797957216858 C 0.0 **** -0.24
9282 H 32.9347867734015 54.584660229436224 97.61294832046688 H 0.0 **** 0.06
9283 H 34.66037280207098 54.82257604049818 97.24458804427343 H 0.0 **** 0.06
9284 H 34.00974652555004 53.17648184406397 97.44054922352757 H 0.0 **** 0.06
9285 H 34.1646830222891 54.24624454995609 98.8543408156907 H 0.0 **** 0.06
9286 C 83.23934109209115 11.450397269351612 94.37390146070105 C 0.0 **** -0.24
9287 H 83.26998220575904 12.398161338796598 93.83791821402728 H 0.0 **** 0.06
9288 H 83.45057419617802 11.623678606242962 95.42975370156957 H 0.0 **** 0.06
9289 H 83.9870922585453 10.774578505301065 93.95936810521962 H 0.0 **** 0.06
9290 H 82.24928798729896 11.005171243771969 94.26991384100752 H 0.0 **** 0.06
9291 C 60.392861357027044 23.9305083653399 23.57486967703767 C 0.0 **** -0.24
9292 H 59.83770535033602 24.091973373305848 24.49917515507161 H 0.0 **** 0.06
9293 H 59.806710690604746 24.296302476277337 22.731352139269433 H 0.0 **** 0.06
9294 H 60.585215791537365 22.864116192294 23.44909077333776 H 0.0 **** 0.06
9295 H 61.33959226031334 24.46720282156517 23.62131651244971 H 0.0 **** 0.06
9296 C 85.50270006354447 31.457565731763147 87.64554636555123 C 0.0 **** -0.24
9297 H 85.32465644182685 30.403116158635726 87.43264653497224 H 0.0 **** 0.06
9298 H 84.69993450249842 32.055388770355066 87.21401444621483 H 0.0 **** 0.06
9299 H 86.45531293223854 31.759448371663005 87.21153107877257 H 0.0 **** 0.06
9300 H 85.52986773068659 31.610324257338966 88.72397226976814 H 0.0 **** 0.06
9301 C 42.42697431910847 71.45596537279395 24.43221308583974 C 0.0 **** -0.24
9302 H 42.83339404469592 70.49504738674798 24.117579435408146 H 0.0 **** 0.06
9303 H 42.90497180678079 72.25520303277955 23.86656367839727 H 0.0 **** 0.06
9304 H 42.61719726773748 71.59946835544929 25.49643060008251 H 0.0 **** 0.06
9305 H 41.352420761349094 71.47308912149131 24.24921806465875 H 0.0 **** 0.06
9306 C 89.97881030996261 14.54750514157817 71.29047817870048 C 0.0 **** -0.24
9307 H 90.95263668429124 14.550754930107303 71.77963391989977 H 0.0 **** 0.06
9308 H 89.44515460229468 15.465547668186332 71.5390486936679 H 0.0 **** 0.06
9309 H 89.40273042115301 13.688425962676718 71.6337690747784 H 0.0 **** 0.06
9310 H 90.11424157497787 14.487174184378091 70.21095409735858 H 0.0 **** 0.06
9311 C 46.55559826994926 27.98288317948206 91.52460054262993 C 0.0 **** -0.24
9312 H 46.20011155949726 27.313167246384268 90.74216687217557 H 0.0 **** 0.06
9313 H 45.80324272981352 28.0528068086507 92.31145355164725 H 0.0 **** 0.06
9314 H 46.73457618249296 28.972046225991647 91.10344844051698 H 0.0 **** 0.06
9315 H 47.48320560057016 27.5922258714714 91.94266181403432 H 0.0 **** 0.06
9316 C 82.84850286207617 95.06415095286953 87.89787835705079 C 0.0 **** -0.24
9317 H 81.8818977814446 95.17422658716704 87.40632194831761 H 0.0 **** 0.06
9318 H 83.16511057334344 96.02913912781598 88.29524868013617 H 0.0 **** 0.06
9319 H 83.58435621483812 94.70828978960608 87.17560244521006 H 0.0 **** 0.06
9320 H 82.76153150036254 94.34589212956284 88.71264761080195 H 0.0 **** 0.06
9321 C 89.40000605315836 75.82927620093486 97.72846749044594 C 0.0 **** -0.24
9322 H 88.70136391118416 75.14162407206487 97.25350079547204 H 0.0 **** 0.06
9323 H 88.85851536536723 76.47830863982193 98.41664948486101 H 0.0 **** 0.06
9324 H 89.88925968608493 76.43551420571256 96.96608956803561 H 0.0 **** 0.06
9325 H 90.1503720364795 75.26164184090027 98.27848825367893 H 0.0 **** 0.06
9326 C 109.05887060997065 22.14037407707906 3.901031304665354 C 0.0 **** -0.24
9327 H 108.85480309457567 22.558447121218364 4.88693958024936 H 0.0 **** 0.06
9328 H 108.36282719390665 22.56391783598957 3.1761809491348725 H 0.0 **** 0.06
9329 H 108.93532861652244 21.05775069173677 3.9330270244135104 H 0.0 **** 0.06
9330 H 110.08045991385357 22.38055356357853 3.6082177319501305 H 0.0 **** 0.06
9331 C 34.6509058982186 87.72695075341369 60.04111949429256 C 0.0 **** -0.24
9332 H 34.50334402417996 86.66506029329753 60.2352736199399 H 0.0 **** 0.06
9333 H 34.33021520078147 87.95733166349959 59.02419917180964 H 0.0 **** 0.06
9334 H 35.70595081531637 87.97451220760769 60.154645880979274 H 0.0 **** 0.06
9335 H 34.06186969705062 88.31085137210857 60.748368497894774 H 0.0 **** 0.06
9336 C 69.94988263770286 97.82214559064562 16.645369366929884 C 0.0 **** -0.24
9337 H 69.43589308519014 98.54247949975127 17.280524820301565 H 0.0 **** 0.06
9338 H 70.04792736652752 98.23036258295127 15.639381862890843 H 0.0 **** 0.06
9339 H 69.3768622430419 96.89595704182207 16.607804685601565 H 0.0 **** 0.06
9340 H 70.94093462923009 97.62002683661078 17.05250659937724 H 0.0 **** 0.06
9341 C 75.53775904153326 73.27572469018956 75.21160872317625 C 0.0 **** -0.24
9342 H 76.35732223820781 73.11786105376909 75.91264864264298 H 0.0 **** 0.06
9343 H 74.96632234469098 74.15461084298292 75.51216325169128 H 0.0 **** 0.06
9344 H 74.88583197900749 72.4012335614103 75.21269738432974 H 0.0 **** 0.06
9345 H 75.93937203582692 73.4275573130993 74.21016599114486 H 0.0 **** 0.06
9346 C 13.53887089328208 28.953168852246677 53.340323591064646 C 0.0 **** -0.24
9347 H 13.128676188561684 28.095901905581286 53.87463384351466 H 0.0 **** 0.06
9348 H 12.846368388370422 29.25432286052859 52.553388811666565 H 0.0 **** 0.06
9349 H 14.496272327762654 28.680993495347252 52.89845518118611 H 0.0 **** 0.06
9350 H 13.680672370436525 29.78065965008733 54.035891043234045 H 0.0 **** 0.06
9351 C 79.88836665817313 101.37980982662748 95.32007557894514 C 0.0 **** -0.24
9352 H 80.83967365546526 101.77438525109898 95.67808395930368 H 0.0 **** 0.06
9353 H 79.7854555965199 100.34025591792948 95.6334105170173 H 0.0 **** 0.06
9354 H 79.85875823622318 101.43608080129661 94.23170906219256 H 0.0 **** 0.06
9355 H 79.0709701063741 101.96832719475702 95.73692797968687 H 0.0 **** 0.06
9356 C 50.39261815046706 64.99694691633621 81.3268258969321 C 0.0 **** -0.24
9357 H 50.608204701887075 64.37038715301789 82.19262614057287 H 0.0 **** 0.06
9358 H 51.10504574023366 64.77369316991953 80.53083684474761 H 0.0 **** 0.06
9359 H 50.47744292481542 66.04641886540624 81.60710980558828 H 0.0 **** 0.06
9360 H 49.380238213973826 64.79473667615903 80.97522145815697 H 0.0 **** 0.06
9361 C 98.13809693570363 1.6944690763045003 70.34963382098982 C 0.0 **** -0.24
9362 H 97.45488396735256 1.8789242146091851 69.52063920686027 H 0.0 **** 0.06
9363 H 98.46556047127211 2.646198541198956 70.7685459964299 H 0.0 **** 0.06
9364 H 99.00450369644855 1.1378676568957928 69.98985054248243 H 0.0 **** 0.06
9365 H 97.62801033555724 1.1147428153452665 71.11869092891055 H 0.0 **** 0.06
9366 C 48.77520660610334 57.54820888886428 5.020821826921846 C 0.0 **** -0.24
9367 H 49.66950326664894 58.13378954380289 4.809925019623321 H 0.0 **** 0.06
9368 H 48.76876452017526 56.654990545087855 4.394692995994546 H 0.0 **** 0.06
9369 H 47.889961715001576 58.14808425504316 4.807327543162174 H 0.0 **** 0.06
9370 H 48.771365422196396 57.25528922622698 6.07120608978687 H 0.0 **** 0.06
9371 C 53.822252772568476 74.12876972196904 105.7353610901047 C 0.0 **** -0.24
9372 H 54.339040272318925 75.07653332146509 105.8849991599952 H 0.0 **** 0.06
9373 H 54.52526211832085 73.38742787169019 105.35460541136234 H 0.0 **** 0.06
9374 H 53.01370465151268 74.26584068011789 105.01643182705155 H 0.0 **** 0.06
9375 H 53.410810427078275 73.78602426713474 106.68477221455709 H 0.0 **** 0.06
9376 C 34.09173239833727 86.64614290865832 103.43450293873764 C 0.0 **** -0.24
9377 H 35.16360078080465 86.66087262967159 103.23717596271183 H 0.0 **** 0.06
9378 H 33.908582534152245 86.19471713677294 104.40967094504282 H 0.0 **** 0.06
9379 H 33.58865701505253 86.06373061207732 102.66382031034755 H 0.0 **** 0.06
9380 H 33.70784551199777 87.66584122680943 103.42859664571472 H 0.0 **** 0.06
9381 C 35.975907424298114 107.92972782525419 23.220328775790083 C 0.0 **** -0.24
9382 H 37.06593535374908 107.92794524237469 23.229955558950955 H 0.0 **** 0.06
9383 H 35.62119410866791 107.78689059580448 22.199206960251505 H 0.0 **** 0.06
9384 H 35.61061858900979 108.88284501313603 23.602504672368163 H 0.0 **** 0.06
9385 H 35.60593688958204 107.12031534328213 23.84924843863814 H 0.0 **** 0.06
9386 C 11.726631850802448 60.216408268991245 28.51078915830476 C 0.0 **** -0.24
9387 H 11.279337987695072 60.70338714627542 29.378095085945972 H 0.0 **** 0.06
9388 H 11.238804502745438 59.255208621321 28.342214077228505 H 0.0 **** 0.06
9389 H 12.790189792507817 60.058527502645745 28.6910665116568 H 0.0 **** 0.06
9390 H 11.596975328520756 60.84882017449621 27.63242584588852 H 0.0 **** 0.06
9391 C 22.64312461304032 77.1540227007435 57.938402496996815 C 0.0 **** -0.24
9392 H 22.8026354533732 76.31448676795583 57.261181350775225 H 0.0 **** 0.06
9393 H 23.12211007597443 78.0450735011193 57.531312604681375 H 0.0 **** 0.06
9394 H 23.07459564635349 76.92249317562323 58.91270255602035 H 0.0 **** 0.06
9395 H 21.573715502844205 77.33362229502114 58.047695036480285 H 0.0 **** 0.06
9396 C 33.77199739525639 80.31187671355957 27.581271151209393 C 0.0 **** -0.24
9397 H 33.601210390127825 81.38715553489328 27.634195546725266 H 0.0 **** 0.06
9398 H 34.18065750416027 80.05746847986676 26.60288976302205 H 0.0 **** 0.06
9399 H 32.82790881238448 79.78629376206212 27.728145557968645 H 0.0 **** 0.06
9400 H 34.476845819866924 80.01743315723546 28.35866256442202 H 0.0 **** 0.06
9401 C 94.12136960053968 59.17761336681889 24.21986966853504 C 0.0 **** -0.24
9402 H 93.9407869600866 58.11228307220759 24.076597189370688 H 0.0 **** 0.06
9403 H 93.18524387426811 59.67336984943532 24.47678963059488 H 0.0 **** 0.06
9404 H 94.51770068595451 59.604599827933015 23.298448494401867 H 0.0 **** 0.06
9405 H 94.84209304103268 59.31958339646465 25.02552219506873 H 0.0 **** 0.06
9406 C 11.474438000325108 95.45650740358289 17.041636882196713 C 0.0 **** -0.24
9407 H 11.030399631228534 94.61815484508753 17.577483499861017 H 0.0 **** 0.06
9408 H 10.690792643512651 96.01605819461565 16.52878923939116 H 0.0 **** 0.06
9409 H 12.190855659300581 95.08149367175014 16.310256539258702 H 0.0 **** 0.06
9410 H 11.985341321539096 96.11032246550343 17.748651313589107 H 0.0 **** 0.06
9411 C 25.52816341522538 92.31784961715957 13.865799080355089 C 0.0 **** -0.24
9412 H 24.472090664255745 92.49427985050357 14.065707465970632 H 0.0 **** 0.06
9413 H 26.038541210081036 92.07513148343094 14.798221292321784 H 0.0 **** 0.06
9414 H 25.97072447263679 93.21531124248851 13.4328878841051 H 0.0 **** 0.06
9415 H 25.6327343752522 91.48731264241066 13.16761645105069 H 0.0 **** 0.06
9416 C 107.79119672432127 87.60775576004606 43.62435997394519 C 0.0 **** -0.24
9417 H 107.25563447939587 87.62182901372339 44.57430514257467 H 0.0 **** 0.06
9418 H 107.07579834038302 87.51253620742446 42.80680313856698 H 0.0 **** 0.06
9419 H 108.47670903967307 86.76150392889038 43.60737916631817 H 0.0 **** 0.06
9420 H 108.3534318668103 88.53439584880633 43.51071358692762 H 0.0 **** 0.06
9421 C 64.57968621670864 58.747253010616575 86.870563265074 C 0.0 **** -0.24
9422 H 65.0000809131794 57.790711396025856 87.1806312537613 H 0.0 **** 0.06
9423 H 64.54536413286107 58.79213959840126 85.78104042057333 H 0.0 **** 0.06
9424 H 65.20254639467834 59.557621585410246 87.24839082949671 H 0.0 **** 0.06
9425 H 63.57019289782497 58.84721359273726 87.27047937895958 H 0.0 **** 0.06
9426 C 109.50361582307224 18.909493968976847 65.40519207304538 C 0.0 **** -0.24
9427 H 109.81222117542265 18.097919552917574 64.74574649646229 H 0.0 **** 0.06
9428 H 110.26790741854884 19.068663775195887 66.16585103766732 H 0.0 **** 0.06
9429 H 108.56129146238709 18.64660520251698 65.88618900096446 H 0.0 **** 0.06
9430 H 109.37388191170248 19.820750921553156 64.82305075844624 H 0.0 **** 0.06
9431 C 47.468344529693226 110.22311645756639 4.074101323979562 C 0.0 **** -0.24
9432 H 48.42276352331956 110.11608328803979 4.588565087356116 H 0.0 **** 0.06
9433 H 47.34951749225735 111.25293424996761 3.736863729621902 H 0.0 **** 0.06
9434 H 46.656923740389125 109.96814423052712 4.75664894678448 H 0.0 **** 0.06
9435 H 47.44240098770188 109.55370937761685 3.2137654194201275 H 0.0 **** 0.06
9436 C 57.414899533959385 34.42096728555873 93.78957125580604 C 0.0 **** -0.24
9437 H 58.281484353635165 33.83942299586022 93.47305619508035 H 0.0 **** 0.06
9438 H 56.70256599897539 33.76594342605131 94.29218190032424 H 0.0 **** 0.06
9439 H 56.94198853857273 34.87016664593796 92.91619741712009 H 0.0 **** 0.06
9440 H 57.73497297019264 35.20552913235031 94.4748189540278 H 0.0 **** 0.06
9441 C 11.70535894916209 38.075998870937255 97.32011087824236 C 0.0 **** -0.24
9442 H 12.678139687709475 38.49523395842399 97.57886240708643 H 0.0 **** 0.06
9443 H 11.835892369018694 37.29173609304706 96.57332192634047 H 0.0 **** 0.06
9444 H 11.0678409808459 38.86081374488375 96.91579779241415 H 0.0 **** 0.06
9445 H 11.24236888654329 37.65482149747656 98.2120214741885 H 0.0 **** 0.06
9446 C 15.270781518303295 67.38120577697316 8.087032846913615 C 0.0 **** -0.24
9447 H 14.761392411748147 66.8661176804788 7.272859830259989 H 0.0 **** 0.06
9448 H 14.539584310606301 67.68124562982376 8.839006625888942 H 0.0 **** 0.06
9449 H 15.77590957987178 68.26487243545637 7.697637691423012 H 0.0 **** 0.06
9450 H 16.00271473147842 66.71199790253081 8.539103986815974 H 0.0 **** 0.06
9451 C 91.2056823781997 89.71545583305715 34.75093334299493 C 0.0 **** -0.24
9452 H 91.06505698228635 89.00446351867154 33.937452485748054 H 0.0 **** 0.06
9453 H 91.24907945966144 90.72618094020032 34.34532617341222 H 0.0 **** 0.06
9454 H 92.13671785632518 89.49139569266063 35.27230726050675 H 0.0 **** 0.06
9455 H 90.37095684372001 89.63881253316386 35.44818426877862 H 0.0 **** 0.06
9456 C 102.58132600743028 80.42453218312293 77.15423348191496 C 0.0 **** -0.24
9457 H 101.87511403972553 80.54862832515792 76.33324046177722 H 0.0 **** 0.06
9458 H 103.55372514766975 80.13279169283147 76.7558490011221 H 0.0 **** 0.06
9459 H 102.21851675734095 79.65160832880727 77.83152579575096 H 0.0 **** 0.06
9460 H 102.67758292678889 81.36616944162171 77.69546785794216 H 0.0 **** 0.06
9461 C 39.67777591203685 87.95736566331189 10.81164941497142 C 0.0 **** -0.24
9462 H 40.57644645416292 88.56536881360194 10.917819938989048 H 0.0 **** 0.06
9463 H 39.30717093873949 88.03331277119048 9.789339418467074 H 0.0 **** 0.06
9464 H 38.914469050336265 88.31519369349803 11.50336649599435 H 0.0 **** 0.06
9465 H 39.91414426311425 86.91727191167712 11.037447443562087 H 0.0 **** 0.06
9466 C 108.83906056368579 29.574558305624997 71.5571762292144 C 0.0 **** -0.24
9467 H 107.79741404734136 29.270132784075166 71.65798970399186 H 0.0 **** 0.06
9468 H 108.90433543404379 30.66163551894401 71.59393241874648 H 0.0 **** 0.06
9469 H 109.23038829270149 29.218666120888876 70.6042344247557 H 0.0 **** 0.06
9470 H 109.42264640201876 29.146103435919336 72.37255023533811 H 0.0 **** 0.06
9471 C 5.281389817088325 54.38543377759051 53.84532596238532 C 0.0 **** -0.24
9472 H 5.50870739067301 55.448118892576815 53.75150228182159 H 0.0 **** 0.06
9473 H 4.980684558357552 53.99110912060832 52.8748821862481 H 0.0 **** 0.06
9474 H 4.469053999856442 54.25075393342103 54.559872403598376 H 0.0 **** 0.06
9475 H 6.166173788547894 53.855119313889695 54.196383772103815 H 0.0 **** 0.06
9476 C 13.183850070487836 33.85535730299476 84.68965763298871 C 0.0 **** -0.24
9477 H 12.197856043299119 33.81432053103244 84.22801227421314 H 0.0 **** 0.06
9478 H 13.933754021632922 34.05822124660689 83.92547180126098 H 0.0 **** 0.06
9479 H 13.401106413156693 32.90094282825608 85.16814731034248 H 0.0 **** 0.06
9480 H 13.202520026412916 34.64927520565574 85.43744945967461 H 0.0 **** 0.06
9481 C 33.461628682669755 58.229450898350734 38.003633527051264 C 0.0 **** -0.24
9482 H 33.99877826087135 59.10395974743295 38.3708301182892 H 0.0 **** 0.06
9483 H 34.016023938661675 57.32717500932924 38.265749828509364 H 0.0 **** 0.06
9484 H 33.36154916456451 58.29333684708067 36.920486091410844 H 0.0 **** 0.06
9485 H 32.47231267246016 58.19307019022193 38.459544701365125 H 0.0 **** 0.06
9486 C 108.32541019993354 105.97263267067564 98.52484928430908 C 0.0 **** -0.24
9487 H 108.28686134447744 106.72454897161342 97.73547694634615 H 0.0 **** 0.06
9488 H 109.3451721853399 105.59661760403131 98.61762851378933 H 0.0 **** 0.06
9489 H 107.65618808780052 105.14990314163178 98.27364696446514 H 0.0 **** 0.06
9490 H 108.01451581361795 106.4197292601218 99.46809207346575 H 0.0 **** 0.06
9491 C 81.79581726760915 82.84355905839962 100.76186120176521 C 0.0 **** -0.24
9492 H 82.02304396894378 81.77714260837672 100.77174841105193 H 0.0 **** 0.06
9493 H 81.14119263696213 83.08159090246085 101.60086907863058 H 0.0 **** 0.06
9494 H 81.2981888210867 83.10027787575453 99.82719170846462 H 0.0 **** 0.06
9495 H 82.72169977385452 83.41239459604859 100.84969894937115 H 0.0 **** 0.06
9496 C 91.18754492561328 72.17608054584055 32.614496993040575 C 0.0 **** -0.24
9497 H 90.9767893140147 71.26093957607347 32.062291645796364 H 0.0 **** 0.06
9498 H 91.63958672693559 71.92540748469058 33.57409063247161 H 0.0 **** 0.06
9499 H 90.25872665310203 72.72181411194973 32.78148273749642 H 0.0 **** 0.06
9500 H 91.87445617899442 72.79665421934547 32.039513558082405 H 0.0 **** 0.06
9501 C 63.15176302039063 56.920835804867295 12.593254872285279 C 0.0 **** -0.24
9502 H 62.909251031048825 57.63510228892824 11.805978496887615 H 0.0 **** 0.06
9503 H 62.236892581721975 56.44185819709219 12.94333815792562 H 0.0 **** 0.06
9504 H 63.62964495901144 57.44191553101365 13.422499393116517 H 0.0 **** 0.06
9505 H 63.82985220008405 56.16384065664113 12.199586067816792 H 0.0 **** 0.06
9506 C 98.71364088473112 63.74054079918349 4.747145465344019 C 0.0 **** -0.24
9507 H 98.56389410090082 64.81870759112738 4.685355251003344 H 0.0 **** 0.06
9508 H 98.22201596281558 63.25689311054077 3.9023072296347436 H 0.0 **** 0.06
9509 H 98.28829231632703 63.367337010578524 5.678127312829105 H 0.0 **** 0.06
9510 H 99.78104441835269 63.52051645411568 4.720825635713979 H 0.0 **** 0.06
9511 C 89.8410180773181 58.540303876377266 34.69826122146392 C 0.0 **** -0.24
9512 H 89.08648074354272 59.326851039274175 34.69263095972323 H 0.0 **** 0.06
9513 H 90.05079760759341 58.245776103841365 35.726707957797316 H 0.0 **** 0.06
9514 H 90.75382394396837 58.909343646344155 34.23184963116597 H 0.0 **** 0.06
9515 H 89.47100385208319 57.67892886380946 34.142042469187146 H 0.0 **** 0.06
9516 C 102.69297470068784 104.74755958739243 64.67427359192601 C 0.0 **** -0.24
9517 H 102.73727929546382 105.64003272504175 64.04851275019823 H 0.0 **** 0.06
9518 H 101.81843081399751 104.15643650836185 64.40075709178228 H 0.0 **** 0.06
9519 H 102.62190519821095 105.04070757293877 65.72109833949764 H 0.0 **** 0.06
9520 H 103.5952451202416 104.15357427469935 64.52314664891378 H 0.0 **** 0.06
9521 C 12.003552471126156 10.552777103007486 55.40230228427144 C 0.0 **** -0.24
9522 H 12.364813877494385 10.834950311187754 54.4129301332606 H 0.0 **** 0.06
9523 H 10.919934457603958 10.436846772466936 55.37245410252638 H 0.0 **** 0.06
9524 H 12.267164182123452 11.329713953867355 56.11899654302344 H 0.0 **** 0.06
9525 H 12.46205913964576 9.61058430795697 55.70083210194266 H 0.0 **** 0.06
9526 C 52.45492029561203 65.9677272612189 18.47809476088611 C 0.0 **** -0.24
9527 H 52.161830514597966 65.26479592668673 19.258771851476922 H 0.0 **** 0.06
9528 H 51.76141364078933 65.8886708540058 17.640422166186198 H 0.0 **** 0.06
9529 H 53.464258303080385 65.73348357001572 18.139371533338476 H 0.0 **** 0.06
9530 H 52.43027161524296 66.98230271960648 18.876574178762127 H 0.0 **** 0.06
9531 C 94.21328524570345 60.504872959867015 57.50252385552545 C 0.0 **** -0.24
9532 H 94.01690417857257 60.519223801016466 56.430360961286965 H 0.0 **** 0.06
9533 H 93.75830364214981 61.38011640415726 57.96643483189564 H 0.0 **** 0.06
9534 H 95.28976213318401 60.51827187575935 57.674836769365925 H 0.0 **** 0.06
9535 H 93.78737622093122 59.599872983193876 57.9373046563432 H 0.0 **** 0.06
9536 C 93.76401417714116 63.560209443773374 87.3203304442863 C 0.0 **** -0.24
9537 H 93.1438323387446 62.978699679814895 88.00143068789397 H 0.0 **** 0.06
9538 H 93.1312621958737 64.22320017503228 86.72884245871174 H 0.0 **** 0.06
9539 H 94.30594052090758 62.88678455056589 86.65630598427938 H 0.0 **** 0.06
9540 H 94.47479455098035 64.1551211522704 87.89511833715875 H 0.0 **** 0.06
9541 C 35.172077972223406 27.878589387548573 85.11563384646661 C 0.0 **** -0.24
9542 H 35.0529427318729 28.867064691201648 85.56144120037749 H 0.0 **** 0.06
9543 H 34.22520845297228 27.341843662507046 85.16387092501307 H 0.0 **** 0.06
9544 H 35.933259149556065 27.323352295446966 85.66353594311522 H 0.0 **** 0.06
9545 H 35.47811525709818 27.9847645317044 84.07432850774902 H 0.0 **** 0.06
9546 C 57.44437889251506 41.552904362320746 39.65777183297509 C 0.0 **** -0.24
9547 H 57.8286495602122 40.54723571067822 39.488809344082725 H 0.0 **** 0.06
9548 H 56.916300395373696 41.58448989932931 40.61044027124285 H 0.0 **** 0.06
9549 H 56.76010378958546 41.82047436003546 38.85265407232603 H 0.0 **** 0.06
9550 H 58.27446833861677 42.259845206047274 39.67784526683451 H 0.0 **** 0.06
9551 C 71.46292339349782 4.214797274008182 82.37409478111495 C 0.0 **** -0.24
9552 H 72.21243153941128 4.389589171456482 83.14659663380559 H 0.0 **** 0.06
9553 H 71.25446893713939 5.149039780688462 81.85251983905299 H 0.0 **** 0.06
9554 H 70.54756749745462 3.8423654252861255 82.83264878080878 H 0.0 **** 0.06
9555 H 71.83928930737946 3.478449753529228 81.66379148379913 H 0.0 **** 0.06
9556 C 105.11052892550993 103.35947145752154 110.64243159615059 C 0.0 **** -0.24
9557 H 105.57218312304006 104.2368587661481 110.18984278981847 H 0.0 **** 0.06
9558 H 104.06790634197456 103.57849314068915 110.87767082837854 H 0.0 **** 0.06
9559 H 105.6433837205445 103.10093373387176 111.55725711147463 H 0.0 **** 0.06
9560 H 105.15733183834479 102.52366933649715 109.9449231790279 H 0.0 **** 0.06
9561 C 83.56581618444557 86.77014816288691 75.55293821110546 C 0.0 **** -0.24
9562 H 83.45853668110016 86.41173281818219 76.57732844101422 H 0.0 **** 0.06
9563 H 84.43520502680776 86.30010431015951 75.09277348999672 H 0.0 **** 0.06
9564 H 83.69760549301648 87.85277295888412 75.55933591127521 H 0.0 **** 0.06
9565 H 82.67060875237625 86.51631640129625 74.98435851326133 H 0.0 **** 0.06
9566 C 16.34401637614893 61.47325355885613 69.08242442150276 C 0.0 **** -0.24
9567 H 17.28422992340674 61.572245376319586 69.62620094486445 H 0.0 **** 0.06
9568 H 16.188560001154443 62.35735422662452 68.46344695963433 H 0.0 **** 0.06
9569 H 15.522608825861653 61.37775257092039 69.79233632765548 H 0.0 **** 0.06
9570 H 16.383134881976247 60.58702637308602 68.44873690473557 H 0.0 **** 0.06
9571 C 68.24322147208314 7.755323777486581 2.6253545540696432 C 0.0 **** -0.24
9572 H 68.87457990408042 7.235383888774038 1.905349181270009 H 0.0 **** 0.06
9573 H 67.68864412152338 7.02591537865095 3.2158256279502258 H 0.0 **** 0.06
9574 H 67.54396749036599 8.401102543580805 2.0949138425364184 H 0.0 **** 0.06
9575 H 68.86643785449056 8.359548782427453 3.285462327475388 H 0.0 **** 0.06
9576 C 88.49797737823866 34.658926474115844 2.011607797948315 C 0.0 **** -0.24
9577 H 89.01185248830603 34.339170429635004 2.918918244548891 H 0.0 **** 0.06
9578 H 88.8228027912757 35.66494958147362 1.7466272788128947 H 0.0 **** 0.06
9579 H 87.42197595688918 34.657150010658995 2.1833531786649445 H 0.0 **** 0.06
9580 H 88.73768035410919 33.97341181222157 1.1986195598433085 H 0.0 **** 0.06
9581 C 67.82381789554634 60.372810296176226 66.01270460574227 C 0.0 **** -0.24
9582 H 67.94996909113965 59.77409227970395 66.91482452525008 H 0.0 **** 0.06
9583 H 67.51655012004483 61.3823768768882 66.28781663107225 H 0.0 **** 0.06
9584 H 67.06057549921371 59.919755438832965 65.38047597406847 H 0.0 **** 0.06
9585 H 68.76694248601797 60.4148187040268 65.4698078145613 H 0.0 **** 0.06
9586 C 101.66811901446938 20.87076337681229 37.83692045436311 C 0.0 **** -0.24
9587 H 101.32906061535444 21.6183885215963 38.55464520900762 H 0.0 **** 0.06
9588 H 100.83428456668027 20.577463935698187 37.198191762003034 H 0.0 **** 0.06
9589 H 102.04194812384115 19.997832516371318 38.370789515840215 H 0.0 **** 0.06
9590 H 102.46536631530084 21.291753552862776 37.22394266629635 H 0.0 **** 0.06
9591 C 90.88043967047037 49.80808521794688 4.915432214188684 C 0.0 **** -0.24
9592 H 89.8152414389748 49.93128231574508 5.1096045747288485 H 0.0 **** 0.06
9593 H 91.43029773150931 49.882727605276955 5.854166687059433 H 0.0 **** 0.06
9594 H 91.21813074029458 50.587274967893904 4.233183188556325 H 0.0 **** 0.06
9595 H 91.05739489801277 48.83017138904967 4.467730169708773 H 0.0 **** 0.06
9596 C 100.05001372786643 101.46387855337991 106.56704691721144 C 0.0 **** -0.24
9597 H 99.68775747178125 100.81103580469278 105.77294334793439 H 0.0 **** 0.06
9598 H 100.07389018412249 102.4931031363775 106.20948239795744 H 0.0 **** 0.06
9599 H 101.05494479376392 101.15576791327004 106.85912605015548 H 0.0 **** 0.06
9600 H 99.38452924947882 101.39292345503696 107.42744770720039 H 0.0 **** 0.06
9601 C 70.72746589968756 39.51947543631081 54.24249236104515 C 0.0 **** -0.24
9602 H 71.22773423051814 38.84224691790706 53.549690151183455 H 0.0 **** 0.06
9603 H 69.68649961536858 39.640965210460195 53.94333496172712 H 0.0 **** 0.06
9604 H 71.22640373528213 40.48856752825995 54.227023161382874 H 0.0 **** 0.06
9605 H 70.77134420412904 39.104911175936394 55.2501386047002 H 0.0 **** 0.06
9606 C 94.13031751100718 27.11850818102043 30.55564833102217 C 0.0 **** -0.24
9607 H 94.07978495256056 27.06265126546174 29.468163523279962 H 0.0 **** 0.06
9608 H 94.2761968469006 28.155031538318724 30.860140194140627 H 0.0 **** 0.06
9609 H 94.96417540853673 26.513345453713498 30.91262571937188 H 0.0 **** 0.06
9610 H 93.2005332218594 26.74171488036491 30.981697284017862 H 0.0 **** 0.06
9611 C 54.57341368061134 5.109719083474317 29.226995716102124 C 0.0 **** -0.24
9612 H 55.31061005986646 4.577607825385144 29.827620225603454 H 0.0 **** 0.06
9613 H 55.07494907622669 5.628199123316163 28.409716426519225 H 0.0 **** 0.06
9614 H 54.050524246653026 5.834868434462434 29.851175039870327 H 0.0 **** 0.06
9615 H 53.85520743994175 4.397590651522144 28.81967070806374 H 0.0 **** 0.06
9616 C 89.7966563015149 25.139953228419873 98.78515385305008 C 0.0 **** -0.24
9617 H 89.24829350712986 24.23951775651249 99.05979339614413 H 0.0 **** 0.06
9618 H 89.24082863552314 26.018060824590044 99.1133845180787 H 0.0 **** 0.06
9619 H 89.92268244092378 25.172966503684695 97.7036543418275 H 0.0 **** 0.06
9620 H 90.77555855576676 25.128694644606803 99.26484476568226 H 0.0 **** 0.06
9621 C 36.45317927524397 67.03790597127289 105.8508328087579 C 0.0 **** -0.24
9622 H 36.749765515229825 66.63833151530588 106.82069805515971 H 0.0 **** 0.06
9623 H 35.9188194908529 67.97770059216862 105.99353695809259 H 0.0 **** 0.06
9624 H 35.8017043563467 66.32335633293116 105.34688834820099 H 0.0 **** 0.06
9625 H 37.34054433382064 67.21306284233327 105.24308448703891 H 0.0 **** 0.06
9626 C 92.08673171714433 85.53947695555394 92.12182494587137 C 0.0 **** -0.24
9627 H 92.02863799925758 85.63910110692399 93.20598725411685 H 0.0 **** 0.06
9628 H 92.24935135834603 86.52109074151684 91.67580028082 H 0.0 **** 0.06
9629 H 91.15366718155582 85.11910503864982 91.74549025668279 H 0.0 **** 0.06
9630 H 92.91378447667799 84.87932999737598 91.86183182411787 H 0.0 **** 0.06
9631 C 56.17090382192211 21.851962605698663 78.82581773525838 C 0.0 **** -0.24
9632 H 55.21901426486933 21.54159824788687 78.39612259236232 H 0.0 **** 0.06
9633 H 56.53051003462323 22.742156748659685 78.30902809897296 H 0.0 **** 0.06
9634 H 56.89992390824898 21.04827226237322 78.7133127342093 H 0.0 **** 0.06
9635 H 56.03701260170847 22.07488808825337 79.8846369517648 H 0.0 **** 0.06
9636 C 101.50061433917344 51.76569975014156 79.48960396983938 C 0.0 **** -0.24
9637 H 100.59635801974808 52.026179242878335 80.04033413166258 H 0.0 **** 0.06
9638 H 101.70053227844046 50.70050991256461 79.60343336707899 H 0.0 **** 0.06
9639 H 102.34163614173886 52.33794087140512 79.88018958136092 H 0.0 **** 0.06
9640 H 101.36115079313804 51.999766626312514 78.43361087717665 H 0.0 **** 0.06
9641 C 58.91941085016725 8.807185318686834 108.49082881609331 C 0.0 **** -0.24
9642 H 59.56980092265576 9.6051473979918 108.13244353483965 H 0.0 **** 0.06
9643 H 58.9283574415966 7.984105546672168 107.77653660582483 H 0.0 **** 0.06
9644 H 57.90266926142735 9.186978152170383 108.59667177884123 H 0.0 **** 0.06
9645 H 59.27712001388889 8.45446550800628 109.45795373086688 H 0.0 **** 0.06
9646 C 75.93852693053917 96.57616793459599 7.745961406702101 C 0.0 **** -0.24
9647 H 76.96178858078818 96.3155188789555 8.015394833131161 H 0.0 **** 0.06
9648 H 75.94862158314005 97.25461568488842 6.893592694975721 H 0.0 **** 0.06
9649 H 75.45220118443292 97.06191422611133 8.592270198345867 H 0.0 **** 0.06
9650 H 75.39051055401141 95.67134244727266 7.483211299885365 H 0.0 **** 0.06
9651 C 88.51205090555209 64.06003431786452 18.861910691103972 C 0.0 **** -0.24
9652 H 89.18637154543839 63.20417134613223 18.84834808114104 H 0.0 **** 0.06
9653 H 88.01273350676456 64.1442947869097 17.89634812353343 H 0.0 **** 0.06
9654 H 89.0825346912236 64.96822224115175 19.057555010586697 H 0.0 **** 0.06
9655 H 87.766923393085 63.92312586512023 19.64626702044292 H 0.0 **** 0.06
9656 C 58.68149096610222 76.63541850855185 1.198475793105004 C 0.0 **** -0.24
9657 H 59.14600293142391 77.60440811620805 1.0141892368102248 H 0.0 **** 0.06
9658 H 59.304462137008045 76.05790096999769 1.8813741296025768 H 0.0 **** 0.06
9659 H 58.57977885698273 76.097795433165 0.2555755732194598 H 0.0 **** 0.06
9660 H 57.69612163131225 76.7827668603505 1.6398650070678258 H 0.0 **** 0.06
9661 C 33.07487614540338 60.65308772550706 13.691408283403206 C 0.0 **** -0.24
9662 H 34.05734734205075 61.11575284551532 13.589977807731344 H 0.0 **** 0.06
9663 H 33.11506498869457 59.63114974559781 13.312539671837385 H 0.0 **** 0.06
9664 H 32.34375576086407 61.224589163720864 13.119479241635958 H 0.0 **** 0.06
9665 H 32.786319999322316 60.6408222487556 14.741378534081292 H 0.0 **** 0.06
9666 C 48.37308124690021 83.00760005380386 2.3857032494821624 C 0.0 **** -0.24
9667 H 49.17918324746202 83.74159058363011 2.3787589607250936 H 0.0 **** 0.06
9668 H 48.57673102634088 82.25299418835446 3.14557856660133 H 0.0 **** 0.06
9669 H 48.306417332373755 82.53141058434784 1.4076990455745886 H 0.0 **** 0.06
9670 H 47.43087970360398 83.5059417696372 2.6121375237434563 H 0.0 **** 0.06
9671 C 74.44960915324836 69.26576463935591 13.785342678178115 C 0.0 **** -0.24
9672 H 75.50987283078679 69.29609117583287 14.033306162881754 H 0.0 **** 0.06
9673 H 74.2687853457488 69.86305240286828 12.89117219407514 H 0.0 **** 0.06
9674 H 73.87037983410688 69.66754420907719 14.616361496247954 H 0.0 **** 0.06
9675 H 74.15010225878116 68.2330791256213 13.598896646812594 H 0.0 **** 0.06
9676 C 23.03563362941466 76.37328642685242 89.24564984311331 C 0.0 **** -0.24
9677 H 23.36664572098246 75.89205178574724 90.16558131523229 H 0.0 **** 0.06
9678 H 22.27878832932896 75.7544023146754 88.7634036467997 H 0.0 **** 0.06
9679 H 23.886094428203137 76.49714965578002 88.57467659577705 H 0.0 **** 0.06
9680 H 22.612267043836738 77.35071824219932 89.47877546471437 H 0.0 **** 0.06
9681 C 85.97828787955187 92.48713723389302 40.678950837497666 C 0.0 **** -0.24
9682 H 85.88053962440492 93.00936128110716 41.63122448774095 H 0.0 **** 0.06
9683 H 85.36655294876206 91.58460134494538 40.69601321217118 H 0.0 **** 0.06
9684 H 87.02158099712854 92.21543010973907 40.51892136884257 H 0.0 **** 0.06
9685 H 85.64392055596238 93.13827609907564 39.87162291418588 H 0.0 **** 0.06
9686 C 70.69490010929502 47.53078438652409 70.40867797578908 C 0.0 **** -0.24
9687 H 70.271259087734 46.538505713941845 70.25527318968098 H 0.0 **** 0.06
9688 H 70.49688908443466 48.148817947706675 69.53237498466532 H 0.0 **** 0.06
9689 H 71.77101578795634 47.446776815012385 70.55976237640553 H 0.0 **** 0.06
9690 H 70.23914349017377 47.98900429629305 71.28672932845386 H 0.0 **** 0.06
9691 C 4.861077023529589 80.27322973086439 52.952634808868936 C 0.0 **** -0.24
9692 H 4.791101310736337 79.87031679027527 51.94165441600467 H 0.0 **** 0.06
9693 H 5.445003147915628 79.59467973703738 53.57498997294624 H 0.0 **** 0.06
9694 H 3.859504243673854 80.37892491039547 53.37086714207021 H 0.0 **** 0.06
9695 H 5.347048211642061 81.24835352035853 52.92210082053725 H 0.0 **** 0.06
9696 C 25.405204853797898 60.51649970600772 55.77064594921706 C 0.0 **** -0.24
9697 H 24.671126881072553 60.17570612518011 56.500450014010205 H 0.0 **** 0.06
9698 H 26.406545450298694 60.254801005235436 56.113229593350326 H 0.0 **** 0.06
9699 H 25.329816165410364 61.59873085348954 55.65909737851926 H 0.0 **** 0.06
9700 H 25.211648582983784 60.03794162536781 54.81113940071978 H 0.0 **** 0.06
9701 C 0.1967119028822708 97.06474737419332 26.956840710010283 C 0.0 **** -0.24
9702 H 0.7784172709375525 97.75845374690391 26.350615491499752 H 0.0 **** 0.06
9703 H -0.8017332112327153 97.47094191057107 27.1170563678279 H 0.0 **** 0.06
9704 H 0.6899668021594039 96.92075063599717 27.918611120520154 H 0.0 **** 0.06
9705 H 0.12146089469098342 96.10729428316068 26.441025226306976 H 0.0 **** 0.06
9706 C 87.10574915481311 17.077339315904567 18.47367461247802 C 0.0 **** -0.24
9707 H 86.02960484668881 17.25186061637615 18.441062479212405 H 0.0 **** 0.06
9708 H 87.41280199655904 16.542330524919507 17.574507262234746 H 0.0 **** 0.06
9709 H 87.34998971985465 16.481341023488937 19.35326732285334 H 0.0 **** 0.06
9710 H 87.62766830416467 18.032383868168864 18.525288465443055 H 0.0 **** 0.06
9711 C 49.42508161376065 27.156619103094528 101.01524723924572 C 0.0 **** -0.24
9712 H 50.43385563847039 27.35569051236336 100.65193011778291 H 0.0 **** 0.06
9713 H 48.71658932259834 27.250196646935166 100.1918204477349 H 0.0 **** 0.06
9714 H 49.17238800404698 27.875215514708593 101.79486949762165 H 0.0 **** 0.06
9715 H 49.37846495526492 26.14731371632555 101.42350601402092 H 0.0 **** 0.06
9716 C 51.32169875342569 70.49822136766781 32.210753550113026 C 0.0 **** -0.24
9717 H 52.129525099899205 70.86563472612033 31.57692643598466 H 0.0 **** 0.06
9718 H 51.44213823384942 69.42638943561587 32.36777700982901 H 0.0 **** 0.06
9719 H 50.36452012553747 70.69041440983267 31.72674156146408 H 0.0 **** 0.06
9720 H 51.35297646443679 71.01316754306214 33.171646333628814 H 0.0 **** 0.06
9721 C 52.77996479835417 0.36444102502809983 53.2045146981452 C 0.0 **** -0.24
9722 H 52.41960857224984 -0.44562350691529673 52.57032577997245 H 0.0 **** 0.06
9723 H 53.532531219670034 -0.020720279767786565 53.89306412842325 H 0.0 **** 0.06
9724 H 51.94668075001505 0.7802238725134885 53.77165497151941 H 0.0 **** 0.06
9725 H 53.220882947640405 1.1432190248154654 52.58228343638234 H 0.0 **** 0.06
9726 C 52.54389618600123 77.51745270473819 92.5085128632129 C 0.0 **** -0.24
9727 H 52.75541370235861 76.76305062603473 91.74935367016076 H 0.0 **** 0.06
9728 H 53.05918276248249 78.44341034355438 92.25324844000554 H 0.0 **** 0.06
9729 H 52.89109370482591 77.16321738564076 93.478457134275 H 0.0 **** 0.06
9730 H 51.46989032118089 77.69828261208278 92.54989726343075 H 0.0 **** 0.06
9731 C 31.32466236448478 56.196044161256935 50.73460829343196 C 0.0 **** -0.24
9732 H 30.35646923773198 55.93368867908296 50.309538484755535 H 0.0 **** 0.06
9733 H 32.100207780129516 56.0699522350576 49.978859732412104 H 0.0 **** 0.06
9734 H 31.53662952636453 55.546745518448034 51.5849247049112 H 0.0 **** 0.06
9735 H 31.3056803653931 57.234225072554636 51.0672775712909 H 0.0 **** 0.06
9736 C 79.78522819373774 28.83660322616649 48.57514420174707 C 0.0 **** -0.24
9737 H 79.63065451226245 27.94592230429629 49.183653177306724 H 0.0 **** 0.06
9738 H 80.36139608852228 28.57528787867392 47.687387145282365 H 0.0 **** 0.06
9739 H 80.32879305550694 29.583365387446747 49.15465200127079 H 0.0 **** 0.06
9740 H 78.81909047174615 29.242855423720528 48.2748080331318 H 0.0 **** 0.06
9741 C 3.584537797982563 105.92846403490773 109.41068483029363 C 0.0 **** -0.24
9742 H 3.854743056513456 106.75750995006297 108.75656807821701 H 0.0 **** 0.06
9743 H 3.3211889865987416 105.0597345576079 108.80691810838061 H 0.0 **** 0.06
9744 H 2.7328856672688744 106.2150227447292 110.02688726221186 H 0.0 **** 0.06
9745 H 4.43037870978128 105.68253535587132 110.0524744799622 H 0.0 **** 0.06
9746 C 26.037999729198475 110.3707364810885 43.56660618615791 C 0.0 **** -0.24
9747 H 25.01873005677095 110.55553144740998 43.90659576649898 H 0.0 **** 0.06
9748 H 26.737514128520445 110.90171114645108 44.21257155902862 H 0.0 **** 0.06
9749 H 26.148401523569476 110.72651722953435 42.54210374679701 H 0.0 **** 0.06
9750 H 26.245492183517143 109.30168954477827 43.60567315275728 H 0.0 **** 0.06
9751 C 58.56160847053491 9.125939663347934 72.11788999726383 C 0.0 **** -0.24
9752 H 57.99682961794872 9.952290819551626 72.55021207376763 H 0.0 **** 0.06
9753 H 59.60320327413663 9.193628951903243 72.43292521688113 H 0.0 **** 0.06
9754 H 58.50579163820436 9.177965386752087 71.03112255390687 H 0.0 **** 0.06
9755 H 58.13982879270816 8.180432555349796 72.45874178592175 H 0.0 **** 0.06
9756 C 92.71284248261196 28.964748998860074 105.96285224362613 C 0.0 **** -0.24
9757 H 91.7070596642939 28.545887120646 106.00069930367206 H 0.0 **** 0.06
9758 H 92.66725502622916 29.986029713335654 105.58497765233301 H 0.0 **** 0.06
9759 H 93.33312076360579 28.35925838868627 105.30204614256988 H 0.0 **** 0.06
9760 H 93.14421304950889 28.96589472927323 106.96414734589145 H 0.0 **** 0.06
9761 C 62.41425454355442 106.48644928847419 96.26715571853231 C 0.0 **** -0.24
9762 H 63.375990022821696 106.01921060521563 96.05882535714164 H 0.0 **** 0.06
9763 H 61.61186169829813 105.84600352205464 95.90103187146997 H 0.0 **** 0.06
9764 H 62.364517895736185 107.45390268736378 95.76757297802396 H 0.0 **** 0.06
9765 H 62.30450990492295 106.62690137821028 97.34362828219042 H 0.0 **** 0.06
9766 C 88.17602229605724 66.3277567457321 101.84457915585503 C 0.0 **** -0.24
9767 H 87.36496167388741 65.63659692851121 102.07310155731778 H 0.0 **** 0.06
9768 H 89.07433517942596 66.02449332637865 102.38305945607128 H 0.0 **** 0.06
9769 H 87.89221274299888 67.33557773070798 102.14871853880382 H 0.0 **** 0.06
9770 H 88.3732019202509 66.31460276242301 100.77219072392403 H 0.0 **** 0.06
9771 C 24.687537481456193 52.68892132525883 95.90141870604431 C 0.0 **** -0.24
9772 H 23.90245967408572 52.559252502331276 95.15618345033648 H 0.0 **** 0.06
9773 H 25.649294754753416 52.41097956230237 95.46836889503051 H 0.0 **** 0.06
9774 H 24.47923052095371 52.05304756886454 96.76178868514715 H 0.0 **** 0.06
9775 H 24.719311961100484 53.73072592911916 96.2182581192954 H 0.0 **** 0.06
9776 C 108.23055417770917 62.072069883583396 83.05778798577029 C 0.0 **** -0.24
9777 H 107.47704453950632 62.474805981543795 82.3806937465605 H 0.0 **** 0.06
9778 H 109.21815190916803 62.185875040824044 82.61085305064654 H 0.0 **** 0.06
9779 H 108.03096710374561 61.01537429054717 83.23606631155178 H 0.0 **** 0.06
9780 H 108.19521033392539 62.61335772509163 84.00346871403548 H 0.0 **** 0.06
9781 C 23.62210996394118 49.56661064988384 64.6824825599557 C 0.0 **** -0.24
9782 H 23.479000328852496 49.246940040932884 65.7149723159244 H 0.0 **** 0.06
9783 H 23.599601733696375 50.655473938588955 64.63309760975443 H 0.0 **** 0.06
9784 H 22.82423678701644 49.15756244518906 64.06274093113166 H 0.0 **** 0.06
9785 H 24.585048060019655 49.205079109839005 64.32078388072472 H 0.0 **** 0.06
9786 C 100.23435867091024 103.69680704373953 71.9141811211887 C 0.0 **** -0.24
9787 H 100.01532230773176 104.76322683157825 71.9698286787985 H 0.0 **** 0.06
9788 H 99.46509531836301 103.19920566589727 71.32327375347785 H 0.0 **** 0.06
9789 H 100.25119129596467 103.27591388374334 72.91898373369952 H 0.0 **** 0.06
9790 H 101.20679320604748 103.5513074799282 71.44259365480428 H 0.0 **** 0.06
9791 C 94.39578567469223 53.92750387778505 21.32198264645433 C 0.0 **** -0.24
9792 H 94.86770614020838 54.86900010361704 21.60629366625625 H 0.0 **** 0.06
9793 H 93.7272312784905 53.60232447381002 22.118373912211325 H 0.0 **** 0.06
9794 H 95.16412509382207 53.17199636097921 21.16019692061053 H 0.0 **** 0.06
9795 H 93.82629785701693 54.06942995101246 20.403840874220975 H 0.0 **** 0.06
9796 C 73.4587032884616 52.77694537054043 103.80086047398365 C 0.0 **** -0.24
9797 H 72.38209453465771 52.67850081395471 103.66008044292947 H 0.0 **** 0.06
9798 H 73.67591978468016 53.72689289230903 104.2914953098977 H 0.0 **** 0.06
9799 H 73.95666581852817 52.747735332895104 102.8312889894279 H 0.0 **** 0.06
9800 H 73.82069020086888 51.957032134064974 104.4204130893242 H 0.0 **** 0.06
9801 C 73.20685110564267 62.24736870893294 32.7739691743329 C 0.0 **** -0.24
9802 H 72.96081657951248 61.20582106098922 32.98088520592281 H 0.0 **** 0.06
9803 H 72.40095545983581 62.889061316227 33.12940483786697 H 0.0 **** 0.06
9804 H 73.33477457641743 62.38391203492665 31.69992994740648 H 0.0 **** 0.06
9805 H 74.1343503347718 62.50943059458882 33.28614750116114 H 0.0 **** 0.06
9806 C 96.01217573246396 68.30130862810626 8.127677755179112 C 0.0 **** -0.24
9807 H 96.97197425752208 68.55611083051708 7.678461379486443 H 0.0 **** 0.06
9808 H 96.14016762804097 67.45364352357109 8.801238221732204 H 0.0 **** 0.06
9809 H 95.30171074870516 68.03919169915325 7.344419881496176 H 0.0 **** 0.06
9810 H 95.63547817616414 69.15709790573015 8.688579203380103 H 0.0 **** 0.06
9811 C 81.73137080113747 69.40081641502559 2.309753109644703 C 0.0 **** -0.24
9812 H 82.53027307091541 69.8446411391713 1.7160996024537667 H 0.0 **** 0.06
9813 H 81.13048232009336 68.74527994793192 1.678163222298906 H 0.0 **** 0.06
9814 H 81.1007904081922 70.1900829115275 2.7182705082939833 H 0.0 **** 0.06
9815 H 82.16356040826678 68.82189917820781 3.126438941971628 H 0.0 **** 0.06
9816 C 90.64443411853271 110.06467828715653 51.091275922872256 C 0.0 **** -0.24
9817 H 90.79649678482173 110.55291235056394 52.05332484205377 H 0.0 **** 0.06
9818 H 89.7475035481248 110.4640855527165 50.619146639463956 H 0.0 **** 0.06
9819 H 90.52924184695652 108.99110402720143 51.2425333565564 H 0.0 **** 0.06
9820 H 91.50670022394355 110.25030673115886 50.44989535119706 H 0.0 **** 0.06
9821 C 95.09254714048427 100.4617550882653 105.16494610706508 C 0.0 **** -0.24
9822 H 94.73008312788684 99.7964180407402 104.3817174340131 H 0.0 **** 0.06
9823 H 95.25101914465064 101.45750876345068 104.75143558692753 H 0.0 **** 0.06
9824 H 96.0335969898944 100.07793247583555 105.55962337162964 H 0.0 **** 0.06
9825 H 94.35579929065575 100.51347611853527 105.96726295656833 H 0.0 **** 0.06
9826 C 33.98682927589585 15.748781793838646 107.68380420465928 C 0.0 **** -0.24
9827 H 34.76194729437556 15.806150682536241 108.44865036527356 H 0.0 **** 0.06
9828 H 33.36884950278111 16.64594877352458 107.72527906144595 H 0.0 **** 0.06
9829 H 33.36538497057532 14.871257841751927 107.86187838330996 H 0.0 **** 0.06
9830 H 34.450767058336474 15.671770135182697 106.70110149861875 H 0.0 **** 0.06
9831 C 56.2938624773617 49.947225355794046 47.721439201583394 C 0.0 **** -0.24
9832 H 56.014849214886596 50.12434161897044 46.68291806916663 H 0.0 **** 0.06
9833 H 56.43764493996085 48.8795149170984 47.88300246450873 H 0.0 **** 0.06
9834 H 55.5017173018488 50.310986097074355 48.37683445557714 H 0.0 **** 0.06
9835 H 57.22013650211204 50.47714654923249 47.94350381406027 H 0.0 **** 0.06
9836 C 107.02884836718232 31.111048515872653 11.771113544590492 C 0.0 **** -0.24
9837 H 106.68196934822173 30.64786824700036 12.69422223841724 H 0.0 **** 0.06
9838 H 106.48512574355635 30.686666143462816 10.925793396451581 H 0.0 **** 0.06
9839 H 108.0949419528557 30.92315057150637 11.647402131319893 H 0.0 **** 0.06
9840 H 106.85132054821968 32.18550702515128 11.814061222052885 H 0.0 **** 0.06
9841 C 90.23676104576089 71.78482122593513 16.358598305999465 C 0.0 **** -0.24
9842 H 91.32189815765074 71.7421081380835 16.268783286766393 H 0.0 **** 0.06
9843 H 89.9117035340002 72.82513341567437 16.339235894626427 H 0.0 **** 0.06
9844 H 89.93179780157851 71.32550081975461 17.298095427895703 H 0.0 **** 0.06
9845 H 89.78272973065907 71.2465484452132 15.52659848004572 H 0.0 **** 0.06
9846 C 67.98460046427049 91.67412903683322 41.730750025570245 C 0.0 **** -0.24
9847 H 67.15147748001137 92.31938146239935 42.00825876357021 H 0.0 **** 0.06
9848 H 68.33648644416017 91.94259678282248 40.73448195134915 H 0.0 **** 0.06
9849 H 67.65438796799612 90.63509782748196 41.732897498548084 H 0.0 **** 0.06
9850 H 68.79517397261158 91.79892229110277 42.44959008076444 H 0.0 **** 0.06
9851 C 11.535004722526367 41.676213133590835 41.604174062423226 C 0.0 **** -0.24
9852 H 10.707184970318451 41.721031052666405 40.895849567729385 H 0.0 **** 0.06
9853 H 12.473420153179518 41.84315019656785 41.075152095930434 H 0.0 **** 0.06
9854 H 11.55509006413422 40.69422957130172 42.077399823704184 H 0.0 **** 0.06
9855 H 11.404243622745298 42.444776222194704 42.36509782966368 H 0.0 **** 0.06
9856 C 72.90274607763479 16.263369237194183 98.9991980078511 C 0.0 **** -0.24
9857 H 73.515521483307 15.362034639616411 98.95873754312217 H 0.0 **** 0.06
9858 H 73.42745742071855 17.08165871598851 98.50695211092906 H 0.0 **** 0.06
9859 H 72.71169130157546 16.526696028330377 100.03996015741666 H 0.0 **** 0.06
9860 H 71.95539926320885 16.080822203800494 98.49131971818318 H 0.0 **** 0.06
9861 C 12.545942948774709 29.038060065925038 110.25099965201336 C 0.0 **** -0.24
9862 H 12.759443631096246 30.099508369663 110.12314538331759 H 0.0 **** 0.06
9863 H 12.570199102265548 28.543457455860448 109.28006215622116 H 0.0 **** 0.06
9864 H 11.55774985250305 28.918443068197803 110.69577705497537 H 0.0 **** 0.06
9865 H 13.295598603309827 28.593584950551076 110.90591340273144 H 0.0 **** 0.06
9866 C 82.3371550621377 107.88454703261519 82.54848240330676 C 0.0 **** -0.24
9867 H 82.14568951719137 106.81975498801745 82.6796790346657 H 0.0 **** 0.06
9868 H 83.40339310096907 108.07961495542793 82.67403243834269 H 0.0 **** 0.06
9869 H 81.77482945215591 108.44956936849687 83.29106528697798 H 0.0 **** 0.06
9870 H 82.02788703087799 108.18840424368958 81.54806556645354 H 0.0 **** 0.06
9871 C 83.48277972571894 51.3799858715455 44.64889924828257 C 0.0 **** -0.24
9872 H 83.49746434564176 50.7855812940291 45.56324128762731 H 0.0 **** 0.06
9873 H 82.54430200235637 51.93044856699805 44.58826855123536 H 0.0 **** 0.06
9874 H 83.57385041475902 50.71910410815286 43.78665266082871 H 0.0 **** 0.06
9875 H 84.31650706804412 52.081258828595594 44.65927394619001 H 0.0 **** 0.06
9876 C 33.90511721293086 21.014446825291188 67.14178212534966 C 0.0 **** -0.24
9877 H 33.26970612621426 21.32665028454822 66.31256772695872 H 0.0 **** 0.06
9878 H 33.61566735095366 21.552965780175747 68.04405305642535 H 0.0 **** 0.06
9879 H 34.946130816155915 21.234405168288404 66.90538261042434 H 0.0 **** 0.06
9880 H 33.78891337043743 19.942560634409155 67.30438726625346 H 0.0 **** 0.06
9881 C 9.284080557284867 109.40360339558924 43.99803544211477 C 0.0 **** -0.24
9882 H 9.871707284170242 109.59671328423903 44.89626046849304 H 0.0 **** 0.06
9883 H 8.495950229800968 108.68575697082977 44.227787234862205 H 0.0 **** 0.06
9884 H 9.932051941396878 108.9973057417318 43.22147827889063 H 0.0 **** 0.06
9885 H 8.838070332319546 110.3349850667775 43.6492148692011 H 0.0 **** 0.06
9886 C 18.445620956999917 106.44172992546092 86.70492172932566 C 0.0 **** -0.24
9887 H 19.416518498256714 106.86544000036619 86.45124005997727 H 0.0 **** 0.06
9888 H 18.576845805842886 105.65078974513136 87.44425552961305 H 0.0 **** 0.06
9889 H 17.984374622979498 106.02765955370731 85.80793604787705 H 0.0 **** 0.06
9890 H 17.80451379128969 107.22163580888977 87.11629767286671 H 0.0 **** 0.06
9891 C 69.99017373348522 70.9258912144852 92.19698678515715 C 0.0 **** -0.24
9892 H 69.78148453559152 70.33932481498263 91.30143752033547 H 0.0 **** 0.06
9893 H 71.06453928609585 71.08943893044551 92.28171895193128 H 0.0 **** 0.06
9894 H 69.63346959342005 70.38791826288386 93.074444998025 H 0.0 **** 0.06
9895 H 69.48079714451899 71.8871665362073 92.12756063792034 H 0.0 **** 0.06
9896 C 49.40157823521241 1.247902670156555 102.99285994538756 C 0.0 **** -0.24
9897 H 48.63076604020944 1.4562668268074122 102.24993280179024 H 0.0 **** 0.06
9898 H 49.62946521492216 2.160908041744956 103.54421601746267 H 0.0 **** 0.06
9899 H 50.30089355118656 0.89124512179718 102.4927059809922 H 0.0 **** 0.06
9900 H 49.04226408166255 0.4854160038951916 103.6838788665826 H 0.0 **** 0.06
9901 C 17.35739460948816 96.69518495015978 99.49987771733674 C 0.0 **** -0.24
9902 H 18.057738918987237 96.76620502517747 98.66757744923547 H 0.0 **** 0.06
9903 H 17.837543738071872 96.1833023729444 100.33425880906873 H 0.0 **** 0.06
9904 H 16.476901498019803 96.13433208421336 99.18773410819824 H 0.0 **** 0.06
9905 H 17.059564150740282 97.69678572951098 99.81046851253953 H 0.0 **** 0.06
9906 C 15.707765807791038 56.818823558831156 87.72619385135914 C 0.0 **** -0.24
9907 H 15.024235709562817 57.23010291104132 88.46969414325505 H 0.0 **** 0.06
9908 H 15.137355664091906 56.290310384759444 86.96145997906513 H 0.0 **** 0.06
9909 H 16.395691415233472 56.12550993721075 88.21085079027989 H 0.0 **** 0.06
9910 H 16.271877266260876 57.62814709226755 87.26474037043573 H 0.0 **** 0.06
9911 C 43.75313447410295 1.4841714261184222 91.75991496890813 C 0.0 **** -0.24
9912 H 44.812499114123966 1.230793161768844 91.78810545464643 H 0.0 **** 0.06
9913 H 43.54247703867196 2.0663378982533516 90.86232351465219 H 0.0 **** 0.06
9914 H 43.496880991852265 2.070395601589155 92.64257012008926 H 0.0 **** 0.06
9915 H 43.16166877817827 0.5690054372637974 91.74667689217624 H 0.0 **** 0.06
9916 C 0.7646290748905633 103.29344956920806 100.01612737304356 C 0.0 **** -0.24
9917 H -0.057852451188104226 103.28437088050731 99.30083201192014 H 0.0 **** 0.06
9918 H 0.3936846200342963 103.61256591161197 100.99103187721772 H 0.0 **** 0.06
9919 H 1.5340035602992046 103.9860384257828 99.67556565557322 H 0.0 **** 0.06
9920 H 1.1870348730957767 102.29255542878553 100.0976192773042 H 0.0 **** 0.06
9921 C 12.57074169841249 102.06360883187183 7.848249715187237 C 0.0 **** -0.24
9922 H 11.801401217714314 102.46592400997173 7.188908018737408 H 0.0 **** 0.06
9923 H 13.061090880574739 102.88296013885765 8.376028986337843 H 0.0 **** 0.06
9924 H 13.307176883450552 101.52008809546888 7.256718535189009 H 0.0 **** 0.06
9925 H 12.113322645884423 101.38772291324227 8.570398411457418 H 0.0 **** 0.06
9926 C 15.850520272300855 4.912199549911376 9.736069649585005 C 0.0 **** -0.24
9927 H 14.793395273978149 4.729597923721718 9.930008130117585 H 0.0 **** 0.06
9928 H 15.956411821365748 5.789782439849702 9.098345586524061 H 0.0 **** 0.06
9929 H 16.282219398279608 4.044534617034017 9.235720537731538 H 0.0 **** 0.06
9930 H 16.369490677263684 5.082544241070664 10.679744474577546 H 0.0 **** 0.06
9931 C 103.52582451146023 4.3424051246645945 58.43744004906954 C 0.0 **** -0.24
9932 H 102.61518917579116 4.805144571253095 58.817204708837295 H 0.0 **** 0.06
9933 H 104.32742335946394 4.465741049887868 59.1663360062809 H 0.0 **** 0.06
9934 H 103.81100355183884 4.818705502873513 57.49890680871535 H 0.0 **** 0.06
9935 H 103.34968195874706 3.280029374643732 58.26731267244455 H 0.0 **** 0.06
9936 C 41.10283372774836 42.03140775288409 78.63040921508184 C 0.0 **** -0.24
9937 H 40.036268151612575 42.23975938717044 78.53844581581055 H 0.0 **** 0.06
9938 H 41.670912068504634 42.92203358300293 78.35965394136048 H 0.0 **** 0.06
9939 H 41.3715702858664 41.212372893370684 77.9637471856368 H 0.0 **** 0.06
9940 H 41.33099460627392 41.75293944844313 79.65924289873857 H 0.0 **** 0.06
9941 C 29.5561621531522 109.70545646390602 109.64812347870986 C 0.0 **** -0.24
9942 H 30.102841982987997 110.10284267376235 108.79319770763885 H 0.0 **** 0.06
9943 H 28.928785673201105 110.48878519120518 110.07408077285584 H 0.0 **** 0.06
9944 H 30.261963799537455 109.3559039339589 110.40069887471714 H 0.0 **** 0.06
9945 H 28.92904363845284 108.87541315406612 109.32368369332465 H 0.0 **** 0.06
9946 C 64.01425194928086 75.74023195409347 88.9562532010105 C 0.0 **** -0.24
9947 H 63.47447883298118 75.88762134198902 88.02081422162328 H 0.0 **** 0.06
9948 H 63.929034496980776 74.69855574394623 89.26517127217596 H 0.0 **** 0.06
9949 H 63.58970123877954 76.38444048695555 89.72641085154402 H 0.0 **** 0.06
9950 H 65.06558734692733 75.99194169453821 88.81116046820455 H 0.0 **** 0.06
9951 C 23.253416941988405 108.28072138473468 11.955327420269214 C 0.0 **** -0.24
9952 H 23.385581633673212 108.31453874976953 10.873762985540253 H 0.0 **** 0.06
9953 H 23.808996175201216 107.43596581711515 12.361884244767907 H 0.0 **** 0.06
9954 H 22.194739585056993 108.16522420172822 12.186980978952704 H 0.0 **** 0.06
9955 H 23.622824497132342 109.20672563830621 12.395443188550601 H 0.0 **** 0.06
9956 C 109.02357881607824 12.566674281758878 81.1273796018933 C 0.0 **** -0.24
9957 H 109.36549560296649 13.014432103010705 82.06133391270379 H 0.0 **** 0.06
9958 H 109.69880625439887 12.852375724015474 80.3199519615969 H 0.0 **** 0.06
9959 H 108.01722528655513 12.919082846654192 80.90247411154178 H 0.0 **** 0.06
9960 H 109.01533642222458 11.481703317765266 81.22792692244076 H 0.0 **** 0.06
9961 C 11.942167317120067 108.5887852596428 90.33258967316794 C 0.0 **** -0.24
9962 H 12.390952102270035 109.39712858013064 89.75660187076596 H 0.0 **** 0.06
9963 H 12.15549410287477 108.7355709505012 91.39174047123362 H 0.0 **** 0.06
9964 H 12.359782401133003 107.63538862206963 90.00675183464631 H 0.0 **** 0.06
9965 H 10.863339421276294 108.58568196995941 90.1758239555013 H 0.0 **** 0.06
9966 C 59.50883925853486 24.54634435574887 54.815079591593644 C 0.0 **** -0.24
9967 H 59.70709021359653 25.588831759322915 54.566255760999525 H 0.0 **** 0.06
9968 H 60.42056333335647 23.962983765618034 54.68256387272692 H 0.0 **** 0.06
9969 H 58.73015120387292 24.158593285918272 54.15936114494929 H 0.0 **** 0.06
9970 H 59.179987678410214 24.476680547210208 55.85176532230764 H 0.0 **** 0.06
9971 C 0.1325210707339579 74.46632774844772 74.35037774909085 C 0.0 **** -0.24
9972 H 0.6652201728649629 75.2626240268853 73.83207517873842 H 0.0 **** 0.06
9973 H 0.28977553400252987 73.52339170157165 73.82571840393206 H 0.0 **** 0.06
9974 H -0.9325810470109843 74.69654483152436 74.37459141277861 H 0.0 **** 0.06
9975 H 0.5089317752144638 74.3811762845919 75.37051500339555 H 0.0 **** 0.06
9976 C 11.748617069694234 64.62728032780205 87.39929758159793 C 0.0 **** -0.24
9977 H 11.726537221435734 63.900886401008165 88.21279691559648 H 0.0 **** 0.06
9978 H 11.357517767608272 64.16622186662397 86.49130625038956 H 0.0 **** 0.06
9979 H 12.775419060729433 64.95138305249452 87.2289777633943 H 0.0 **** 0.06
9980 H 11.134916191166496 65.4876464907706 87.6644145010733 H 0.0 **** 0.06
9981 C 87.58716118252471 79.69035352392753 74.9076527623825 C 0.0 **** -0.24
9982 H 87.87206509537009 79.91295702188268 73.87909931107879 H 0.0 **** 0.06
9983 H 88.48462658776404 79.5542986726738 75.51208614628399 H 0.0 **** 0.06
9984 H 86.99184421964037 78.77674236390853 74.92896393633197 H 0.0 **** 0.06
9985 H 86.99947221412177 80.51550937110069 75.30906178101594 H 0.0 **** 0.06
9986 C 30.25474344586641 45.0318563383874 107.01471755329663 C 0.0 **** -0.24
9987 H 29.206953927913645 44.732871361426504 107.04978692200135 H 0.0 **** 0.06
9988 H 30.87528842736947 44.22738911214731 107.4089080096135 H 0.0 **** 0.06
9989 H 30.396281720165007 45.92926738544173 107.61757582625731 H 0.0 **** 0.06
9990 H 30.538992294012502 45.239520040488514 105.9837146192971 H 0.0 **** 0.06
9991 C 59.53125057118842 80.58169011272794 80.6880426573378 C 0.0 **** -0.24
9992 H 59.58802402796255 81.60502470243836 81.06001020806772 H 0.0 **** 0.06
9993 H 59.99979382079022 80.52650762784542 79.70476451036006 H 0.0 **** 0.06
9994 H 58.48605863907167 80.28133173438387 80.61128705160672 H 0.0 **** 0.06
9995 H 60.05107753259665 79.91667951934541 81.37661109722333 H 0.0 **** 0.06
9996 C 98.12669125220317 68.13490338325931 35.01221580129633 C 0.0 **** -0.24
9997 H 98.6647046641341 67.20061797136202 34.85099210123853 H 0.0 **** 0.06
9998 H 98.76232417407802 68.83165256573665 35.55865161274713 H 0.0 **** 0.06
9999 H 97.2224464002367 67.9383507666609 35.588429354594844 H 0.0 **** 0.06
10000 H 97.85550524549762 68.56888790245455 34.04944669389942 H 0.0 **** 0.06
10001 C 78.78036709969231 36.31881691540744 25.5569848773317 C 0.0 **** -0.24
10002 H 79.73507464878824 36.13151693947552 25.064523716500105 H 0.0 **** 0.06
10003 H 78.93479950094903 36.387614019488694 26.633002645741612 H 0.0 **** 0.06
10004 H 78.09258282181949 35.500888858622744 25.339140245607837 H 0.0 **** 0.06
10005 H 78.3600881835012 37.25500594756869 25.188483182048998 H 0.0 **** 0.06
10006 C 88.97284843218834 59.89612431843115 107.966110475554 C 0.0 **** -0.24
10007 H 89.9196810797128 60.4151481096537 107.81487223269825 H 0.0 **** 0.06
10008 H 89.15591894173302 58.825170618611835 108.0502595383362 H 0.0 **** 0.06
10009 H 88.31434345659495 60.08796295332374 107.11936504026424 H 0.0 **** 0.06
10010 H 88.50325727051515 60.258119959083814 108.88099792907141 H 0.0 **** 0.06
10011 C 76.43420878745167 14.598038872722839 93.15488462925134 C 0.0 **** -0.24
10012 H 75.94747268182812 15.250013500438968 92.42900873138196 H 0.0 **** 0.06
10013 H 75.70328282744595 13.901092433541649 93.56459870165862 H 0.0 **** 0.06
10014 H 76.85370537023687 15.201331225540258 93.96015458444712 H 0.0 **** 0.06
10015 H 77.23215358251784 14.040873637912014 92.6638747069192 H 0.0 **** 0.06
10016 C 56.686372062153566 105.18876440323828 87.01465458881111 C 0.0 **** -0.24
10017 H 57.67161899881385 105.0288374387103 87.45404124570894 H 0.0 **** 0.06
10018 H 56.1443913608837 104.24372889569122 86.98530292260256 H 0.0 **** 0.06
10019 H 56.79927945664623 105.57651591730979 86.0026993686377 H 0.0 **** 0.06
10020 H 56.13271766555662 105.9070603897151 87.61965329707218 H 0.0 **** 0.06
10021 C 97.50059644140049 74.47020109875672 105.65480801271076 C 0.0 **** -0.24
10022 H 97.61449748210208 75.33303634932273 104.9985911172437 H 0.0 **** 0.06
10023 H 96.59719800059707 73.92386714588451 105.38082027552935 H 0.0 **** 0.06
10024 H 97.42282760053968 74.80659705916139 106.68880197286217 H 0.0 **** 0.06
10025 H 98.36622054071552 73.81622065084184 105.54898632873038 H 0.0 **** 0.06
10026 C 52.5520052933039 25.271559329919924 83.46011066454423 C 0.0 **** -0.24
10027 H 52.69798237496162 24.327192902463082 82.9347350588006 H 0.0 **** 0.06
10028 H 53.45741199468071 25.87285465299405 83.38297228651743 H 0.0 **** 0.06
10029 H 52.33527781761228 25.073554499167756 84.50913494737341 H 0.0 **** 0.06
10030 H 51.71827480182394 25.81066088818082 83.01153998847062 H 0.0 **** 0.06
10031 C 38.082683693369745 53.89047777835981 53.772806177825544 C 0.0 **** -0.24
10032 H 38.76887315004217 54.50525435402204 53.19039865861177 H 0.0 **** 0.06
10033 H 37.905919158258484 54.36156893472844 54.74012835405756 H 0.0 **** 0.06
10034 H 38.51723858358048 52.90265338516028 53.92296842735644 H 0.0 **** 0.06
10035 H 37.13724722788379 53.794113897975876 53.23748879119847 H 0.0 **** 0.06
10036 C 92.7157548162009 45.0341670772577 8.795671971994238 C 0.0 **** -0.24
10037 H 93.46100792119063 45.77664373250863 9.079698237674279 H 0.0 **** 0.06
10038 H 91.74411152270068 45.51746759163312 8.691663923493138 H 0.0 **** 0.06
10039 H 92.65872124177011 44.26388696949896 9.564261211514093 H 0.0 **** 0.06
10040 H 93.00020704788173 44.58038621797771 7.8460659402518615 H 0.0 **** 0.06
10041 C 26.42144558126853 83.19612697281073 100.69055757247276 C 0.0 **** -0.24
10042 H 26.91601683273683 83.7689084073811 101.47582854412406 H 0.0 **** 0.06
10043 H 25.585425885348485 83.77174386753171 100.29308933791795 H 0.0 **** 0.06
10044 H 26.052821539649017 82.25693185967287 101.10493622362569 H 0.0 **** 0.06
10045 H 27.132356076613235 82.9862015108452 99.89150294844501 H 0.0 **** 0.06
10046 C 77.59745233501911 27.62210437489665 19.744778849330345 C 0.0 **** -0.24
10047 H 77.06107840298404 27.161437391900705 18.915821904596555 H 0.0 **** 0.06
10048 H 77.57367425336997 28.706553348805983 19.634208538149494 H 0.0 **** 0.06
10049 H 78.63155354848834 27.2792871329124 19.74394836238571 H 0.0 **** 0.06
10050 H 77.12235222155687 27.342772710660626 20.685229507214075 H 0.0 **** 0.06
10051 C 92.8298538393188 92.10237395648545 84.945159684555 C 0.0 **** -0.24
10052 H 93.72584972833276 92.21392523479159 85.55667294375642 H 0.0 **** 0.06
10053 H 92.20745619613085 91.30656222493744 85.35402345344966 H 0.0 **** 0.06
10054 H 93.1168363809129 91.85099475412053 83.92412969149858 H 0.0 **** 0.06
10055 H 92.27095922049043 93.03883339397234 84.94459402548082 H 0.0 **** 0.06
10056 C 71.09948222120818 10.560287909065408 83.91638770995081 C 0.0 **** -0.24
10057 H 71.37383889612244 11.604837459646475 84.06572762762403 H 0.0 **** 0.06
10058 H 70.90170389461292 10.38405176973879 82.85847403125678 H 0.0 **** 0.06
10059 H 70.20433127083396 10.334134167155852 84.49599534196454 H 0.0 **** 0.06
10060 H 71.91715537751702 9.918547688559272 84.24523091500203 H 0.0 **** 0.06
10061 C 8.93889871260005 12.533377725380234 4.867878468573316 C 0.0 **** -0.24
10062 H 9.794780040883182 12.091949252058157 5.377752717263583 H 0.0 **** 0.06
10063 H 9.014091499756034 12.339484559336938 3.7966771110577415 H 0.0 **** 0.06
10064 H 8.927198572527743 13.608302048603349 5.0422356655215985 H 0.0 **** 0.06
10065 H 8.01993781442043 12.092391129442177 5.253141217313029 H 0.0 **** 0.06
10066 C 82.99665129805805 59.732793231784896 38.2397211175375 C 0.0 **** -0.24
10067 H 81.9395398586247 59.71119191294218 38.50724792139391 H 0.0 **** 0.06
10068 H 83.14700626209856 59.18285769776351 37.31105056619742 H 0.0 **** 0.06
10069 H 83.58083118330103 59.2700312610218 39.03526430429295 H 0.0 **** 0.06
10070 H 83.31693132651094 60.765993153040355 38.107447418373 H 0.0 **** 0.06
10071 C 9.005332306331823 34.67430491963425 24.47553192661971 C 0.0 **** -0.24
10072 H 8.10963763434384 34.417922323247076 23.90922478300962 H 0.0 **** 0.06
10073 H 8.745822583265806 34.80350665922899 25.526553988817327 H 0.0 **** 0.06
10074 H 9.427049422573646 35.60184816167852 24.088373124133028 H 0.0 **** 0.06
10075 H 9.737690910994559 33.87309084640987 24.37800449532166 H 0.0 **** 0.06
10076 C 8.394592909684235 107.914452761637 97.16179620587828 C 0.0 **** -0.24
10077 H 7.421831460354269 107.57859477952768 96.80529205063293 H 0.0 **** 0.06
10078 H 9.181429354026989 107.40326004762636 96.60582478328634 H 0.0 **** 0.06
10079 H 8.491908075561781 107.68371712966415 98.22328131017787 H 0.0 **** 0.06
10080 H 8.484565383486256 108.98993881090216 97.01447559823734 H 0.0 **** 0.06
10081 C 109.32008723508292 58.56641462901675 44.44347460931441 C 0.0 **** -0.24
10082 H 108.71185029995537 58.08537411324235 45.21024161701836 H 0.0 **** 0.06
10083 H 108.67065372066504 59.050567945715045 43.71492992989836 H 0.0 **** 0.06
10084 H 109.93266496385394 57.81583728328417 43.94380580367076 H 0.0 **** 0.06
10085 H 109.96629080077946 59.31149707737859 44.90809795537884 H 0.0 **** 0.06
10086 C 67.09741018506729 54.04324198262225 69.31336526803086 C 0.0 **** -0.24
10087 H 67.78456425018611 53.52859691636257 68.64177649742648 H 0.0 **** 0.06
10088 H 67.36330613919615 55.099745531977824 69.36643507790619 H 0.0 **** 0.06
10089 H 67.16342542576885 53.60117756970246 70.30800782915273 H 0.0 **** 0.06
10090 H 66.07898126473313 53.94265983277177 68.93822863414015 H 0.0 **** 0.06
10091 C 47.4167996546835 110.642026875628 86.2146679424939 C 0.0 **** -0.24
10092 H 47.90913899670295 110.44188497498112 85.26314762700996 H 0.0 **** 0.06
10093 H 46.97618438247787 109.72118291442554 86.59643396984342 H 0.0 **** 0.06
10094 H 46.633440329339436 111.38675129322915 86.06757772708477 H 0.0 **** 0.06
10095 H 48.146749867810655 111.01969524788421 86.92972874541816 H 0.0 **** 0.06
10096 C 11.161753406923197 102.62512423974243 54.508973079549584 C 0.0 **** -0.24
10097 H 11.4448754183137 103.1299916433594 55.43384695245052 H 0.0 **** 0.06
10098 H 11.909361592291361 101.87121154409988 54.263570652394215 H 0.0 **** 0.06
10099 H 11.101087868111279 103.3544664911268 53.70178273150035 H 0.0 **** 0.06
10100 H 10.191831494367534 102.14594141647683 54.63981269933061 H 0.0 **** 0.06
10101 C 78.02060902263435 89.68090748409605 72.38914885046438 C 0.0 **** -0.24
10102 H 78.90288192189468 89.42841536947464 72.97822528750362 H 0.0 **** 0.06
10103 H 77.32879972395571 88.83822421702826 72.3910378796241 H 0.0 **** 0.06
10104 H 78.32047838654526 89.90381568939529 71.36452643383006 H 0.0 **** 0.06
10105 H 77.53244605213962 90.55341766307501 72.82328780419562 H 0.0 **** 0.06
10106 C 58.479293616837964 72.75644596590514 84.98449046494719 C 0.0 **** -0.24
10107 H 58.05816652789426 71.76762024897832 84.80436444933946 H 0.0 **** 0.06
10108 H 58.59053460010966 73.28218416871594 84.03497657320305 H 0.0 **** 0.06
10109 H 59.45506167719475 72.65478485369245 85.4599002471861 H 0.0 **** 0.06
10110 H 57.81459060369343 73.32154763217102 85.637501733842 H 0.0 **** 0.06
10111 C 95.46839162003162 19.677564236082702 54.48075714577672 C 0.0 **** -0.24
10112 H 95.8759907441105 19.012899850494733 53.718731578414065 H 0.0 **** 0.06
10113 H 94.61282463815104 20.215506063069256 54.071834797676644 H 0.0 **** 0.06
10114 H 96.23407986959243 20.391296304966318 54.78663592568191 H 0.0 **** 0.06
10115 H 95.15199191868024 19.091284601325725 55.34323330793268 H 0.0 **** 0.06
10116 C 65.98674306721082 92.37599375465521 53.88081742829173 C 0.0 **** -0.24
10117 H 65.61200117231918 93.23363695335985 54.43726173150847 H 0.0 **** 0.06
10118 H 65.59752618072079 91.45803847700108 54.32112078969517 H 0.0 **** 0.06
10119 H 67.07585298242182 92.36425121725136 53.920167451513876 H 0.0 **** 0.06
10120 H 65.66166679092892 92.4470101832334 52.841906021382336 H 0.0 **** 0.06
10121 C 96.625666680128 43.6237327257175 69.22262911657472 C 0.0 **** -0.24
10122 H 96.99311201650517 44.31907033777472 68.467664692987 H 0.0 **** 0.06
10123 H 97.19504047013697 42.69464772976737 69.16757999634555 H 0.0 **** 0.06
10124 H 95.57076110719817 43.41580552461076 69.04130817192714 H 0.0 **** 0.06
10125 H 96.74477829094184 44.06462402006187 70.21188134769831 H 0.0 **** 0.06
10126 C 65.0271658199247 32.857373518973574 18.039066338371356 C 0.0 **** -0.24
10127 H 64.62999493597351 32.61615823476043 19.02401055198365 H 0.0 **** 0.06
10128 H 64.25934508909359 32.680867061376574 17.285361780029973 H 0.0 **** 0.06
10129 H 65.89164151002527 32.22737791084372 17.830984582818388 H 0.0 **** 0.06
10130 H 65.32624854704045 33.904861771511946 18.013935177195464 H 0.0 **** 0.06
10131 C 37.07923945365661 56.299714421359 100.69553549612996 C 0.0 **** -0.24
10132 H 36.10469900814945 55.82036342408898 100.59532398988566 H 0.0 **** 0.06
10133 H 37.742356788737936 55.65437648327821 101.2713132808904 H 0.0 **** 0.06
10134 H 36.96281772582665 57.254069021693624 101.20813861739306 H 0.0 **** 0.06
10135 H 37.50345258004916 56.46833578692258 99.70642947512725 H 0.0 **** 0.06
10136 C 87.6352252256051 60.24244735636614 80.8262343089425 C 0.0 **** -0.24
10137 H 87.7559144310705 60.00554697994755 79.76830323851249 H 0.0 **** 0.06
10138 H 87.52762352478305 61.32039492837322 80.94585297579818 H 0.0 **** 0.06
10139 H 88.51180735997593 59.90067623886722 81.37645879867137 H 0.0 **** 0.06
10140 H 86.74710788276553 59.74255993188484 81.21055161449601 H 0.0 **** 0.06
10141 C 19.18621951571042 16.25193523838675 79.18404659808039 C 0.0 **** -0.24
10142 H 19.54518054602204 16.953950511510996 79.93667018774414 H 0.0 **** 0.06
10143 H 18.171692405024984 15.941065180100225 79.43180300953077 H 0.0 **** 0.06
10144 H 19.839472775889988 15.379273244486683 79.16209238788667 H 0.0 **** 0.06
10145 H 19.19068175190624 16.73337136502424 78.20623216419648 H 0.0 **** 0.06
10146 C 32.522930292634584 99.475097485132 50.00335348015784 C 0.0 **** -0.24
10147 H 32.40555042955731 99.47367243404307 51.08770063097256 H 0.0 **** 0.06
10148 H 33.55609467970791 99.71152828019969 49.750757931004074 H 0.0 **** 0.06
10149 H 31.86012383169222 100.22315535356154 49.568072230638506 H 0.0 **** 0.06
10150 H 32.26809236407345 98.49069586418341 49.609667241348404 H 0.0 **** 0.06
10151 C 90.65032716057269 64.40416442115185 31.02657862304762 C 0.0 **** -0.24
10152 H 90.96057276402576 64.33779215955065 32.069913265254144 H 0.0 **** 0.06
10153 H 89.58718453552262 64.17696543843738 30.94902797543429 H 0.0 **** 0.06
10154 H 91.21986847791658 63.68902350641872 30.432574482525055 H 0.0 **** 0.06
10155 H 90.83509395109374 65.41314517912036 30.656782954408776 H 0.0 **** 0.06
10156 C 84.34770488420355 96.94760620214407 62.577047063004656 C 0.0 **** -0.24
10157 H 83.35797366218736 96.99145440712492 62.12318018399657 H 0.0 **** 0.06
10158 H 84.88657710666814 96.08204145720242 62.192396437423554 H 0.0 **** 0.06
10159 H 84.2472821817151 96.86162798029301 63.65914492067452 H 0.0 **** 0.06
10160 H 84.89844988392991 97.85691077075052 62.33523328128568 H 0.0 **** 0.06
10161 C 48.45326470760745 52.58469534231969 32.402966376278755 C 0.0 **** -0.24
10162 H 47.55372663841564 52.217872953474796 31.909746067336187 H 0.0 **** 0.06
10163 H 48.479077819223534 52.219032808058735 33.43046305644947 H 0.0 **** 0.06
10164 H 48.44847307859462 53.67466422979503 32.405722172076224 H 0.0 **** 0.06
10165 H 49.33317071881402 52.22666458020435 31.868336481859473 H 0.0 **** 0.06
10166 C 73.89367924281879 93.10683830422016 34.9418264332853 C 0.0 **** -0.24
10167 H 72.94902738904281 92.72495438235782 35.330641738256034 H 0.0 **** 0.06
10168 H 73.7375836544291 93.51141884121358 33.94228481859527 H 0.0 **** 0.06
10169 H 74.62149538984144 92.29698437762528 34.89713886162836 H 0.0 **** 0.06
10170 H 74.26494019340987 93.89327837311119 35.59854252952749 H 0.0 **** 0.06
10171 C 51.71446549944306 57.68768986697802 26.226054701189554 C 0.0 **** -0.24
10172 H 50.96555202749937 57.860200989851904 25.45279841854574 H 0.0 **** 0.06
10173 H 52.186867573999436 56.7189864911017 26.064305630995904 H 0.0 **** 0.06
10174 H 51.23434534794836 57.69924472103074 27.205033712627028 H 0.0 **** 0.06
10175 H 52.46901919056795 58.472713716516296 26.182811394881924 H 0.0 **** 0.06
10176 C 34.68313640393177 84.06814737868592 107.93260303115099 C 0.0 **** -0.24
10177 H 35.569062472415226 83.71497185513914 107.40372606702897 H 0.0 **** 0.06
10178 H 34.755101119445044 83.79433966346062 108.98521556604254 H 0.0 **** 0.06
10179 H 33.794784340967496 83.61135829718216 107.49712622693002 H 0.0 **** 0.06
10180 H 34.615581320341164 85.15322789626401 107.84203031659757 H 0.0 **** 0.06
10181 C 68.31662861355632 60.03120214945541 80.40496858228516 C 0.0 **** -0.24
10182 H 68.82815728028906 59.10012056239714 80.64990583256883 H 0.0 **** 0.06
10183 H 68.87104946546116 60.87133247106841 80.82277269467528 H 0.0 **** 0.06
10184 H 67.31058797527704 60.013246040146754 80.82609757544833 H 0.0 **** 0.06
10185 H 68.25491396599239 60.13723790260018 79.32180079136691 H 0.0 **** 0.06
10186 C 1.0743685416058781 0.9338422561780533 10.733625378197388 C 0.0 **** -0.24
10187 H 0.7013533027296717 1.674986127020702 10.027129023376087 H 0.0 **** 0.06
10188 H 1.777210198880681 0.271840861511194 10.22827949158576 H 0.0 **** 0.06
10189 H 0.2391343968791091 0.34948931350345447 11.122430473086148 H 0.0 **** 0.06
10190 H 1.5785443660987255 1.4391237828747876 11.557353515965445 H 0.0 **** 0.06
10191 C 13.253939544907624 106.81285497153087 95.50853582043993 C 0.0 **** -0.24
10192 H 13.75369767358373 107.77772851833207 95.59953927891661 H 0.0 **** 0.06
10193 H 13.796726773667032 106.18886125197163 94.79828613826129 H 0.0 **** 0.06
10194 H 12.234522647900448 106.96368042560873 95.15464239171786 H 0.0 **** 0.06
10195 H 13.232047232639616 106.32154887291668 96.48111628465949 H 0.0 **** 0.06
10196 C 90.12212365377331 33.036963917472804 87.09113436694071 C 0.0 **** -0.24
10197 H 89.1239503744145 32.63117596335505 86.92270623161934 H 0.0 **** 0.06
10198 H 90.85869606978247 32.405812967099905 86.59218810445839 H 0.0 **** 0.06
10199 H 90.32837266040755 33.061243054774934 88.16067938696528 H 0.0 **** 0.06
10200 H 90.17615058821221 34.047912768210324 86.68645020162074 H 0.0 **** 0.06
10201 C 99.3675887205897 5.842124713583672 45.48584798228622 C 0.0 **** -0.24
10202 H 98.39963275626889 5.505839016139618 45.11609962982472 H 0.0 **** 0.06
10203 H 99.88500692970274 5.008014770191494 45.959986927484984 H 0.0 **** 0.06
10204 H 99.221259130374 6.640768686178859 46.214175702790406 H 0.0 **** 0.06
10205 H 99.9647628141756 6.215250300223914 44.653265147279335 H 0.0 **** 0.06
10206 C 80.08230494419445 68.35123691393622 42.674425917098574 C 0.0 **** -0.24
10207 H 79.91672414769266 69.39269217124091 42.95077116175395 H 0.0 **** 0.06
10208 H 80.81820805488712 67.9095421983582 43.347040345812104 H 0.0 **** 0.06
10209 H 80.44941215017059 68.30103680712223 41.6499290069018 H 0.0 **** 0.06
10210 H 79.14329095379827 67.80218956940149 42.75145528118145 H 0.0 **** 0.06
10211 C 77.9068508447806 19.582176595911335 78.23084432536598 C 0.0 **** -0.24
10212 H 77.5694172868456 19.568838907209653 77.19477222325949 H 0.0 **** 0.06
10213 H 77.05698231526313 19.768946429650015 78.88709978618965 H 0.0 **** 0.06
10214 H 78.64705577027698 20.372878712174014 78.36059661326962 H 0.0 **** 0.06
10215 H 78.35509361349511 18.620844600643125 78.47999468037597 H 0.0 **** 0.06
10216 C 20.041819080421618 38.9495413326956 32.16406103325881 C 0.0 **** -0.24
10217 H 21.077685631264785 38.78162516764536 32.459529141467826 H 0.0 **** 0.06
10218 H 19.678680693639762 39.87071012178899 32.62007344450878 H 0.0 **** 0.06
10219 H 19.429058479157675 38.112097461307826 32.49975882725019 H 0.0 **** 0.06
10220 H 19.9816047710799 39.0319324243349 31.07926997934161 H 0.0 **** 0.06
10221 C 54.409317862967285 100.68474878056725 109.17300017338154 C 0.0 **** -0.24
10222 H 53.40508146264132 101.08349301923016 109.31754438864556 H 0.0 **** 0.06
10223 H 55.08631221812774 101.13475141843395 109.8998956651781 H 0.0 **** 0.06
10224 H 54.75066317030105 100.91902149649309 108.16513988481255 H 0.0 **** 0.06
10225 H 54.39388183431527 99.60390272172691 109.31064545376894 H 0.0 **** 0.06
10226 C 66.26185938257036 5.321972188766679 33.440563008759625 C 0.0 **** -0.24
10227 H 65.17737054543497 5.207059943612833 33.44886569176117 H 0.0 **** 0.06
10228 H 66.6804497940652 4.871193185819365 34.340965775354135 H 0.0 **** 0.06
10229 H 66.51335583199872 6.381669368180027 33.41363538559054 H 0.0 **** 0.06
10230 H 66.6731085874624 4.827920125506253 32.56079978123316 H 0.0 **** 0.06
10231 C 7.306733503331882 5.782981952663139 17.766738342429704 C 0.0 **** -0.24
10232 H 8.10028043720025 5.252806970103089 18.292486798170785 H 0.0 **** 0.06
10233 H 7.667691721995315 6.100285334910421 16.78817741818196 H 0.0 **** 0.06
10234 H 7.008504930236006 6.6585419973621995 18.345038569242035 H 0.0 **** 0.06
10235 H 6.44851131144781 5.122501420496997 17.640667344611103 H 0.0 **** 0.06
10236 C 74.17853001721008 18.50401074433094 18.84330620761805 C 0.0 **** -0.24
10237 H 73.33787435901762 18.018330804946444 19.338945995985725 H 0.0 **** 0.06
10238 H 74.463744384048 17.925646249331294 17.963615302576088 H 0.0 **** 0.06
10239 H 75.02279514480414 18.558870366781022 19.530800618498787 H 0.0 **** 0.06
10240 H 73.89071584825327 19.509634818199288 18.5393129858805 H 0.0 **** 0.06
10241 C 106.74730151391796 51.591756975970156 103.0792544293552 C 0.0 **** -0.24
10242 H 106.40572616275708 51.132756758240106 102.1519277498493 H 0.0 **** 0.06
10243 H 107.49219605796515 50.95046909970739 103.54983033449913 H 0.0 **** 0.06
10244 H 105.90075991818208 51.72035657342889 103.75375068781162 H 0.0 **** 0.06
10245 H 107.18878866590916 52.56454503288913 102.86239219086963 H 0.0 **** 0.06
10246 C 103.92568067646818 88.81875589588546 80.08989305271865 C 0.0 **** -0.24
10247 H 102.90271045315077 88.63356494518567 79.76381037140875 H 0.0 **** 0.06
10248 H 104.00250514079192 88.64073338986005 81.16274334325941 H 0.0 **** 0.06
10249 H 104.19487464979073 89.85253008994803 79.87142957447017 H 0.0 **** 0.06
10250 H 104.60234040222156 88.14860509746332 79.55965324299177 H 0.0 **** 0.06
10251 C 10.604022854970395 59.541901154189475 99.11660946620879 C 0.0 **** -0.24
10252 H 10.138475063200872 59.275751583275564 100.06641758992193 H 0.0 **** 0.06
10253 H 9.843535430392649 59.56883449787267 98.33453061140735 H 0.0 **** 0.06
10254 H 11.360710720869974 58.79941135099352 98.86234559065498 H 0.0 **** 0.06
10255 H 11.071692705406349 60.52223972619191 99.20370648067141 H 0.0 **** 0.06
10256 C 32.86555504076932 68.09635864154897 53.85861433824044 C 0.0 **** -0.24
10257 H 33.315749499483104 67.10410510647515 53.89959780379496 H 0.0 **** 0.06
10258 H 33.34710852732417 68.68035157045401 53.07423672844729 H 0.0 **** 0.06
10259 H 32.99779694290464 68.59446127201261 54.818017005174056 H 0.0 **** 0.06
10260 H 31.80200052693334 68.00245252139193 53.64079070809515 H 0.0 **** 0.06
10261 C 61.24419862562587 75.76060989085954 52.64344389306399 C 0.0 **** -0.24
10262 H 62.09238518034442 75.36100147900476 52.088310237052724 H 0.0 **** 0.06
10263 H 61.54460427786245 76.67362017373202 53.15890239863387 H 0.0 **** 0.06
10264 H 60.909977763619 75.02426215286124 53.374329079697304 H 0.0 **** 0.06
10265 H 60.43047096638591 75.98338340779969 51.9541196366265 H 0.0 **** 0.06
10266 C 107.1835678390516 62.197716382957196 62.7727042609352 C 0.0 **** -0.24
10267 H 107.61173136760823 63.17498113535203 62.99416372391971 H 0.0 **** 0.06
10268 H 107.71709336568107 61.74872161159578 61.93481587363283 H 0.0 **** 0.06
10269 H 106.1305008667009 62.31422222681323 62.51390290424331 H 0.0 **** 0.06
10270 H 107.27265628397178 61.55526206614422 63.64854238250524 H 0.0 **** 0.06
10271 C 54.37787543136592 42.89196566034667 56.16405550891591 C 0.0 **** -0.24
10272 H 55.25502640803505 42.830001009021345 56.808947227727714 H 0.0 **** 0.06
10273 H 54.67125557292705 42.69530031791149 55.13198784717076 H 0.0 **** 0.06
10274 H 53.9442609581308 43.88931875610896 56.23531565338277 H 0.0 **** 0.06
10275 H 53.6426178051615 42.15198463554131 56.47915550209967 H 0.0 **** 0.06
10276 C 6.882392319697232 80.86371800060063 73.07081306920367 C 0.0 **** -0.24
10277 H 6.882609516979045 80.74857438176863 74.15424399929513 H 0.0 **** 0.06
10278 H 6.325077657170482 80.04478379786259 72.6181003846717 H 0.0 **** 0.06
10279 H 7.909188479960051 80.85126207571034 72.70464473466036 H 0.0 **** 0.06
10280 H 6.41476327987283 81.81328561520131 72.80697931136346 H 0.0 **** 0.06
10281 C 97.64242058836123 43.090265982069695 46.464019612597596 C 0.0 **** -0.24
10282 H 96.7008172116096 42.6034344351159 46.21070589042904 H 0.0 **** 0.06
10283 H 97.44993590848895 44.12219208771748 46.75900933178326 H 0.0 **** 0.06
10284 H 98.3038442028045 43.077114499755396 45.5985703074017 H 0.0 **** 0.06
10285 H 98.11476199529437 42.55858909548877 47.290590275498325 H 0.0 **** 0.06
10286 C 100.23986129767053 48.44178694547202 87.22639467842347 C 0.0 **** -0.24
10287 H 99.38491807250008 49.00623836609054 87.59813704665333 H 0.0 **** 0.06
10288 H 99.88916352533475 47.629526472880315 86.58935405744978 H 0.0 **** 0.06
10289 H 100.79683873512744 48.030595549305644 88.0675007563089 H 0.0 **** 0.06
10290 H 100.8870133536924 49.10248744514374 86.64967829286786 H 0.0 **** 0.06
10291 C 65.8176708056644 79.0278596245438 22.9678045268183 C 0.0 **** -0.24
10292 H 65.736043039666 79.86851616708822 22.27837052243433 H 0.0 **** 0.06
10293 H 66.69947280623273 78.43748734820156 22.716417177098606 H 0.0 **** 0.06
10294 H 64.92730125828626 78.40516289855609 22.887483104253647 H 0.0 **** 0.06
10295 H 65.90885120447766 79.40166462383377 23.987501381400648 H 0.0 **** 0.06
10296 C 97.73983046076742 65.3038990936531 22.187705814517642 C 0.0 **** -0.24
10297 H 98.25489358855572 64.59070354250092 21.544050768401604 H 0.0 **** 0.06
10298 H 97.28718128648708 66.08439059151443 21.575070080300634 H 0.0 **** 0.06
10299 H 98.45563342852235 65.75188441404083 22.8776101866041 H 0.0 **** 0.06
10300 H 96.96326931176253 64.78880164845793 22.752985502904608 H 0.0 **** 0.06
10301 C 74.74562470343326 64.10463016625987 101.93966496731449 C 0.0 **** -0.24
10302 H 74.64948596204033 64.40952538529065 100.89790206339342 H 0.0 **** 0.06
10303 H 73.92899968015942 63.428580471746045 102.19676652339358 H 0.0 **** 0.06
10304 H 74.70543606965327 64.98484796010669 102.58099110941625 H 0.0 **** 0.06
10305 H 75.69787030980729 63.59384158835819 102.08141139171093 H 0.0 **** 0.06
10306 C 77.98855610329565 40.98097742935701 1.0373874117933326 C 0.0 **** -0.24
10307 H 76.92693522321616 40.9851469238569 0.7897132932989166 H 0.0 **** 0.06
10308 H 78.11112471802008 41.11396730957057 2.111916294129088 H 0.0 **** 0.06
10309 H 78.48779360949197 41.79384693879439 0.5110151551720605 H 0.0 **** 0.06
10310 H 78.42731924622245 40.029579231485144 0.7367662176401666 H 0.0 **** 0.06
10311 C 102.34512150761662 27.123609221400784 87.50207927681058 C 0.0 **** -0.24
10312 H 102.67043340837972 26.313494602145 88.15431786339168 H 0.0 **** 0.06
10313 H 102.11312273662543 28.003039092077415 88.10289323253343 H 0.0 **** 0.06
10314 H 101.45546643457715 26.81292766985814 86.95405412382287 H 0.0 **** 0.06
10315 H 103.14109086942182 27.363713969292405 86.79653249402088 H 0.0 **** 0.06
10316 C 0.09592750389407456 46.845364758141294 18.6265840354769 C 0.0 **** -0.24
10317 H -0.7624940024829812 46.20743300876805 18.41603158109285 H 0.0 **** 0.06
10318 H -0.2437025157091739 47.868870851360995 18.788869328679883 H 0.0 **** 0.06
10319 H 0.7834312837859443 46.82007459329775 17.78086734895433 H 0.0 **** 0.06
10320 H 0.6051121170086162 46.485330532088355 19.520285938906017 H 0.0 **** 0.06
10321 C 63.27398531284051 94.16852909179393 77.91434844243541 C 0.0 **** -0.24
10322 H 62.782840093230874 93.52378311312438 77.18518127824873 H 0.0 **** 0.06
10323 H 63.11850477561653 95.21203819549568 77.63895358716536 H 0.0 **** 0.06
10324 H 64.3418519779972 93.9515072765521 77.92993778922263 H 0.0 **** 0.06
10325 H 62.85098489575468 93.98634899310844 78.90201274030831 H 0.0 **** 0.06
10326 C 56.53742632435598 63.7100919268415 81.7637896057978 C 0.0 **** -0.24
10327 H 56.3294695914175 63.90065964965727 80.7100829291661 H 0.0 **** 0.06
10328 H 55.76965067707708 63.052990267107006 82.17234890386385 H 0.0 **** 0.06
10329 H 56.53811592155167 64.65396254352981 82.31037225529406 H 0.0 **** 0.06
10330 H 57.513068017429624 63.23417894313549 81.8604530989711 H 0.0 **** 0.06
10331 C 78.45612855991695 94.9909312676653 87.7371218238942 C 0.0 **** -0.24
10332 H 78.25937667210448 94.2257619621766 88.4886199294871 H 0.0 **** 0.06
10333 H 79.51584798898128 94.98070715766872 87.47869771311758 H 0.0 **** 0.06
10334 H 78.18776913973744 95.96836128077841 88.13656576800912 H 0.0 **** 0.06
10335 H 77.86249619082898 94.78600802505869 86.84591374827068 H 0.0 **** 0.06
10336 C 2.513927348434919 25.322995474966774 23.705710277762762 C 0.0 **** -0.24
10337 H 2.2062725444057065 26.008498191001394 24.495023430710603 H 0.0 **** 0.06
10338 H 2.886706345344976 24.399771527238784 24.15004700337272 H 0.0 **** 0.06
10339 H 3.30204923894469 25.784631248662407 23.111246648760243 H 0.0 **** 0.06
10340 H 1.6606042867495034 25.10018510081582 23.06519172248784 H 0.0 **** 0.06
10341 C 30.190512490334655 46.54852254806946 90.98126672828266 C 0.0 **** -0.24
10342 H 30.124407342547244 45.49061837880879 91.23631502552189 H 0.0 **** 0.06
10343 H 30.38241950904336 47.1280914752586 91.88491342201104 H 0.0 **** 0.06
10344 H 29.25193448171831 46.873515580243634 90.53366029162032 H 0.0 **** 0.06
10345 H 31.004044409755096 46.70047058343221 90.27204508935222 H 0.0 **** 0.06
10346 C 31.931019116809125 74.3632518059275 77.34709515303572 C 0.0 **** -0.24
10347 H 31.74080282769762 74.68525757059064 76.32347668863855 H 0.0 **** 0.06
10348 H 31.870818804745113 73.27654469929696 77.40239699826975 H 0.0 **** 0.06
10349 H 31.18710774936926 74.8034178290559 78.01123029550055 H 0.0 **** 0.06
10350 H 32.926897944391044 74.68876331443849 77.6499951690131 H 0.0 **** 0.06
10351 C 81.16084190651242 56.34160097719288 106.09144128339412 C 0.0 **** -0.24
10352 H 81.09609536756074 57.030998388561144 105.24933983376023 H 0.0 **** 0.06
10353 H 81.93765021789085 56.679062875357296 106.7776526584335 H 0.0 **** 0.06
10354 H 81.40680492294149 55.34461476185474 105.72558144092035 H 0.0 **** 0.06
10355 H 80.20384481193196 56.3122027938362 106.61101896524572 H 0.0 **** 0.06
10356 C 22.893004032453742 96.44144533546734 94.96622059718194 C 0.0 **** -0.24
10357 H 23.184494685505875 97.26737672931031 95.61564134104425 H 0.0 **** 0.06
10358 H 23.596727446055045 95.61726217370801 95.08755180206977 H 0.0 **** 0.06
10359 H 22.900642895006413 96.7766427518207 93.92840407157308 H 0.0 **** 0.06
10360 H 21.890583272321035 96.1066620729303 95.23291427176437 H 0.0 **** 0.06
10361 C 86.51183943712135 4.482075437291707 75.99019929679666 C 0.0 **** -0.24
10362 H 86.89101397654858 5.453514919868635 76.3075157554004 H 0.0 **** 0.06
10363 H 85.60717772984071 4.619882085097103 75.39773050345444 H 0.0 **** 0.06
10364 H 86.28406196995377 3.8768179164858605 76.86782023296252 H 0.0 **** 0.06
10365 H 87.26699238431218 3.9769116892577205 75.38749922584094 H 0.0 **** 0.06
10366 C 34.3999853398808 42.059234126631395 65.43913311011121 C 0.0 **** -0.24
10367 H 35.2396854347308 41.49132543622699 65.84004982756784 H 0.0 **** 0.06
10368 H 33.506218796044664 41.433854166488345 65.44017892080625 H 0.0 **** 0.06
10369 H 34.62612152210113 42.36853789532415 64.41924768480843 H 0.0 **** 0.06
10370 H 34.228878717776524 42.94038451223139 66.05725222252678 H 0.0 **** 0.06
10371 C 45.69809132224776 56.81215847047531 31.09319973608782 C 0.0 **** -0.24
10372 H 46.53525344660437 57.29859526228701 30.591545863440572 H 0.0 **** 0.06
10373 H 44.799901642200155 56.91611393300644 30.483072390417753 H 0.0 **** 0.06
10374 H 45.53566195558449 57.279301304070145 32.063647013755414 H 0.0 **** 0.06
10375 H 45.92309179178403 55.75431726471221 31.230722560275225 H 0.0 **** 0.06
10376 C 104.09598240534673 23.923293572525083 22.894707751589976 C 0.0 **** -0.24
10377 H 103.44773331371964 24.80024461282659 22.89637470633906 H 0.0 **** 0.06
10378 H 103.69676347260206 23.178175538812056 22.205922490011275 H 0.0 **** 0.06
10379 H 104.14058436467076 23.503858627274358 23.90027165932591 H 0.0 **** 0.06
10380 H 105.09772215449159 24.21329285733863 22.57725439366682 H 0.0 **** 0.06
10381 C 82.02752927816371 68.05637002999036 21.395206864946527 C 0.0 **** -0.24
10382 H 82.0233153082441 68.99384761513156 21.95287059919933 H 0.0 **** 0.06
10383 H 81.32268013340956 67.3603376283526 21.851303752554745 H 0.0 **** 0.06
10384 H 83.0284219721614 67.62544093920822 21.41627002985796 H 0.0 **** 0.06
10385 H 81.73488192513875 68.24655388565071 20.36352025389285 H 0.0 **** 0.06
10386 C 62.35152429500785 15.008853351700303 19.889014986094566 C 0.0 **** -0.24
10387 H 62.24431191693172 13.978483865444705 20.228211042905684 H 0.0 **** 0.06
10388 H 61.57205683560089 15.234229756829599 19.15972437569127 H 0.0 **** 0.06
10389 H 63.33041013335081 15.139528547558182 19.427339496905546 H 0.0 **** 0.06
10390 H 62.25826928365484 15.682395216088075 20.74133043618491 H 0.0 **** 0.06
10391 C 99.60085267437464 87.55987430440501 40.086050603391016 C 0.0 **** -0.24
10392 H 98.86667967742692 86.76661540721605 40.229005472827794 H 0.0 **** 0.06
10393 H 99.15487251384268 88.51886257110561 40.35109582195389 H 0.0 **** 0.06
10394 H 99.91429888914563 87.57993471105294 39.041972629839506 H 0.0 **** 0.06
10395 H 100.46618325362493 87.37239809920985 40.721616793599196 H 0.0 **** 0.06
10396 C 26.679902294340117 23.552902856096978 107.07172517060712 C 0.0 **** -0.24
10397 H 27.248117238023077 22.85675288293993 106.45525157361669 H 0.0 **** 0.06
10398 H 26.324855331392705 24.378185138788126 106.45364783453232 H 0.0 **** 0.06
10399 H 27.318992219393614 23.941028449960072 107.86453239726791 H 0.0 **** 0.06
10400 H 25.828060870742867 23.03555493560492 107.51256417275931 H 0.0 **** 0.06
10401 C 85.2824793166285 103.33063711826946 82.33901812943122 C 0.0 **** -0.24
10402 H 85.72612203966514 102.36287649213371 82.57311691320677 H 0.0 **** 0.06
10403 H 84.81532033122465 103.28683948309978 81.35475494161761 H 0.0 **** 0.06
10404 H 86.05955843184435 104.09539373638734 82.33866344256182 H 0.0 **** 0.06
10405 H 84.53106295403197 103.57599468114323 83.08839371088777 H 0.0 **** 0.06
10406 C 65.01480178895713 63.2721175949315 59.1943453400815 C 0.0 **** -0.24
10407 H 65.31847113214724 62.24914030635 59.42101961783868 H 0.0 **** 0.06
10408 H 64.88523176025512 63.82584864988473 60.124017991005246 H 0.0 **** 0.06
10409 H 64.07391052482552 63.25778528137755 58.64457545471049 H 0.0 **** 0.06
10410 H 65.78285370246044 63.7522538949778 58.588519382393315 H 0.0 **** 0.06
10411 C 28.091683783707822 21.191226072143024 85.22510146707305 C 0.0 **** -0.24
10412 H 27.7859020632863 21.593277943642107 84.2595174295038 H 0.0 **** 0.06
10413 H 28.73665790949906 20.325037527270666 85.07130743177544 H 0.0 **** 0.06
10414 H 27.208888392251822 20.890395236940748 85.78945317312254 H 0.0 **** 0.06
10415 H 28.635820083329577 21.955336487000807 85.7811183224497 H 0.0 **** 0.06
10416 C 94.03273186279894 39.268012809389916 107.6096735936664 C 0.0 **** -0.24
10417 H 94.41813577057404 38.617079433461384 106.8245848563181 H 0.0 **** 0.06
10418 H 93.88393463085923 38.68866832645432 108.52045789619575 H 0.0 **** 0.06
10419 H 93.0823761631535 39.696727521425885 107.29196860176819 H 0.0 **** 0.06
10420 H 94.74796706249533 40.068784761701664 107.80021144168757 H 0.0 **** 0.06
10421 C 102.56049837224859 53.462684685537525 24.30346863273894 C 0.0 **** -0.24
10422 H 102.43593335203094 52.776840954684054 25.141616399430973 H 0.0 **** 0.06
10423 H 102.43992123272801 54.48859649053175 24.652369602824706 H 0.0 **** 0.06
10424 H 101.80970922309221 53.24645568842151 23.54326706846342 H 0.0 **** 0.06
10425 H 103.5561866205619 53.33815501255273 23.877831459959168 H 0.0 **** 0.06
10426 C 74.18551308076266 90.08817901864398 6.753439395885465 C 0.0 **** -0.24
10427 H 74.3530466818624 90.54151289108266 7.730329673188564 H 0.0 **** 0.06
10428 H 75.13185685606832 89.72552248541378 6.353916731506018 H 0.0 **** 0.06
10429 H 73.76495027021407 90.83166440538254 6.076406804675287 H 0.0 **** 0.06
10430 H 73.49030495986909 89.25464724361838 6.854524462874068 H 0.0 **** 0.06
10431 C 14.550042968815774 78.49623999283018 7.128169397219409 C 0.0 **** -0.24
10432 H 13.681281994643484 78.9199462282065 7.6313473929377835 H 0.0 **** 0.06
10433 H 15.459787833430084 78.92133930228928 7.553191319884746 H 0.0 **** 0.06
10434 H 14.50251647731821 78.72782763265265 6.064509636158874 H 0.0 **** 0.06
10435 H 14.557066430929922 77.41418395985731 7.263691360395967 H 0.0 **** 0.06
10436 C 68.18030180443463 77.03832322261155 108.89449854727597 C 0.0 **** -0.24
10437 H 67.28776741590781 77.15004173029226 108.27835643407583 H 0.0 **** 0.06
10438 H 68.43209593943556 77.99841608848914 109.3454466106775 H 0.0 **** 0.06
10439 H 69.00899878764591 76.69865344892915 108.27341926558952 H 0.0 **** 0.06
10440 H 67.99038897981629 76.3061785794668 109.67968839607138 H 0.0 **** 0.06
10441 C 12.176731651206126 7.517215703480142 67.52387993909184 C 0.0 **** -0.24
10442 H 12.610926913157599 6.832436537742204 66.79607869410916 H 0.0 **** 0.06
10443 H 11.381192748035886 8.093435780650886 67.05102580924455 H 0.0 **** 0.06
10444 H 12.947567025225283 8.195211929340102 67.8897906635577 H 0.0 **** 0.06
10445 H 11.767464205427657 6.948742984376281 68.35876474353609 H 0.0 **** 0.06
10446 C 54.22269138014005 83.49559610992691 95.04335838047541 C 0.0 **** -0.24
10447 H 54.429928330951014 84.45996825732203 95.5067501356109 H 0.0 **** 0.06
10448 H 55.10171922986157 83.16049604264052 94.49318504915726 H 0.0 **** 0.06
10449 H 53.38046605492488 83.5941618094335 94.3594322357538 H 0.0 **** 0.06
10450 H 53.97903555236189 82.76690116033461 95.81740056948207 H 0.0 **** 0.06
10451 C 79.0118201948531 36.79698980559132 6.394110597645891 C 0.0 **** -0.24
10452 H 79.43876209673724 35.82767317721135 6.137949346709064 H 0.0 **** 0.06
10453 H 78.38429264181497 36.694779183478204 7.2794144356424795 H 0.0 **** 0.06
10454 H 78.41073596553235 37.160038383997716 5.561181339434938 H 0.0 **** 0.06
10455 H 79.81600505183408 37.504454849499325 6.598702162149863 H 0.0 **** 0.06
10456 C 86.16855569144255 15.593388817495892 75.63628498567445 C 0.0 **** -0.24
10457 H 85.76475863092585 16.185329510655365 74.81591750805454 H 0.0 **** 0.06
10458 H 85.40555722647065 15.469609030458344 76.40534784458194 H 0.0 **** 0.06
10459 H 87.03374783551382 16.103926986876743 76.06118867599196 H 0.0 **** 0.06
10460 H 86.4716717478615 14.614582494551513 75.26398995142978 H 0.0 **** 0.06
10461 C 85.67926306262291 21.299370796647707 98.49869134141903 C 0.0 **** -0.24
10462 H 85.31063046470376 20.274623333505218 98.5419506128394 H 0.0 **** 0.06
10463 H 86.60883146595233 21.37456375080518 99.06537068147014 H 0.0 **** 0.06
10464 H 84.93658980866635 21.97116963144765 98.92721603752375 H 0.0 **** 0.06
10465 H 85.86436137569359 21.574738109442393 97.46019376673962 H 0.0 **** 0.06
10466 C 57.10144328108697 100.35069343268276 19.552835306621603 C 0.0 **** -0.24
10467 H 56.95931306497607 99.3270538206024 19.20650501331707 H 0.0 **** 0.06
10468 H 57.17139703245073 101.01846321181532 18.6939955414268 H 0.0 **** 0.06
10469 H 58.01897098556458 100.41314636171293 20.137867161133784 H 0.0 **** 0.06
10470 H 56.25393031763036 100.64446337337068 20.173423585001274 H 0.0 **** 0.06
10471 C 12.2661925390737 60.652544478919936 94.60619955581447 C 0.0 **** -0.24
10472 H 11.363085210795361 60.41248507824503 95.1669324217396 H 0.0 **** 0.06
10473 H 12.543568696345346 59.802593429806166 93.98318239456 H 0.0 **** 0.06
10474 H 13.076483557399115 60.873240118120634 95.30200678398332 H 0.0 **** 0.06
10475 H 12.082175188337175 61.521553571703464 93.97561136088144 H 0.0 **** 0.06
10476 C 41.577304381252986 92.5217553479078 77.89080558502565 C 0.0 **** -0.24
10477 H 41.871398253099414 92.7472094027886 76.86565144858082 H 0.0 **** 0.06
10478 H 42.468942920665086 92.35456284996911 78.49581811482659 H 0.0 **** 0.06
10479 H 40.95734903509651 91.62510055732668 77.90116435616756 H 0.0 **** 0.06
10480 H 41.01160336620154 93.36000777534588 78.29835803011554 H 0.0 **** 0.06
10481 C 88.59362403902517 32.55697731778781 76.82054087048093 C 0.0 **** -0.24
10482 H 89.14784719238284 32.415106287786784 77.74792536474975 H 0.0 **** 0.06
10483 H 87.66777416876093 33.0942840382736 77.02884904909368 H 0.0 **** 0.06
10484 H 88.36041114656236 31.5850655035905 76.38549154873225 H 0.0 **** 0.06
10485 H 89.19860308678685 33.13259443399318 76.12039017877828 H 0.0 **** 0.06
10486 C 35.701542564374904 47.85137511059794 40.56958374792862 C 0.0 **** -0.24
10487 H 35.038944733953144 48.44284463741884 41.1999943717328 H 0.0 **** 0.06
10488 H 36.443113925311536 48.504401036108824 40.10864250872487 H 0.0 **** 0.06
10489 H 35.11811472874632 47.35797831664311 39.79226702132382 H 0.0 **** 0.06
10490 H 36.207284788125094 47.10001258192749 41.17690980439798 H 0.0 **** 0.06
10491 C 37.741657190614504 13.478864248450748 82.04642166840358 C 0.0 **** -0.24
10492 H 37.2788445769825 14.17004325830004 82.75011886399113 H 0.0 **** 0.06
10493 H 36.99762731586925 12.760902767801156 81.69973788352115 H 0.0 **** 0.06
10494 H 38.55637622097611 12.947308387771557 82.5408325642959 H 0.0 **** 0.06
10495 H 38.135454318657054 14.035519081266045 81.19560148311348 H 0.0 **** 0.06
10496 C 75.85172894513396 97.74481761927534 101.68646364323166 C 0.0 **** -0.24
10497 H 75.99302287779823 96.91474062179192 100.99361302336831 H 0.0 **** 0.06
10498 H 74.8679363853565 98.18700692646708 101.5264836711454 H 0.0 **** 0.06
10499 H 76.62105251514205 98.49649180079729 101.51222570974136 H 0.0 **** 0.06
10500 H 75.92490205731298 97.37965901285368 102.71086425776332 H 0.0 **** 0.06
10501 C 84.12382586212792 78.94940525111511 7.263863615292067 C 0.0 **** -0.24
10502 H 84.13809216314881 77.94691173868769 6.837015953420931 H 0.0 **** 0.06
10503 H 83.49790854351437 79.59732655661631 6.648195400600811 H 0.0 **** 0.06
10504 H 85.13840765387654 79.34571297676257 7.294615363035117 H 0.0 **** 0.06
10505 H 83.71952549036051 78.90801297241505 8.275708299839636 H 0.0 **** 0.06
10506 C 18.172378218453076 29.62009641231373 24.991447049819783 C 0.0 **** -0.24
10507 H 17.566923780005443 29.58364705860464 24.087024036038528 H 0.0 **** 0.06
10508 H 17.549829798923618 29.386136462588127 25.855024456541997 H 0.0 **** 0.06
10509 H 18.59285028853731 30.61931820988704 25.10727363218021 H 0.0 **** 0.06
10510 H 18.981218234769536 28.89277053392857 24.91750344905165 H 0.0 **** 0.06
10511 C 77.20007680944272 58.72568942407975 93.35631505649064 C 0.0 **** -0.24
10512 H 76.71275917397486 59.29139241140581 94.15006020153331 H 0.0 **** 0.06
10513 H 77.63114157276297 57.81550770132969 93.77156686172016 H 0.0 **** 0.06
10514 H 77.9884900768062 59.331539459099645 92.91046872329974 H 0.0 **** 0.06
10515 H 76.46545103227538 58.46569053697493 92.59336136073104 H 0.0 **** 0.06
10516 C 65.27036087698053 82.56209870167612 36.885450738752354 C 0.0 **** -0.24
10517 H 64.52196839027977 81.78128125811475 36.74341683475643 H 0.0 **** 0.06
10518 H 65.57821949704163 82.58388255574016 37.93081108900492 H 0.0 **** 0.06
10519 H 64.84454032587854 83.5263804820838 36.611007381158686 H 0.0 **** 0.06
10520 H 66.1356477774973 82.35371362931824 36.2551460188551 H 0.0 **** 0.06
10521 C 19.29789119348277 26.554437563616318 96.17391903425187 C 0.0 **** -0.24
10522 H 19.34203446830685 27.474339043906184 96.75765734087491 H 0.0 **** 0.06
10523 H 19.65550008707538 26.749336225702564 95.1620281273336 H 0.0 **** 0.06
10524 H 18.26788898346274 26.200280080494508 96.13306990734574 H 0.0 **** 0.06
10525 H 19.924874492908714 25.796471778054524 96.64181161120788 H 0.0 **** 0.06
10526 C 58.73594627889085 43.42993600467753 44.041471777494905 C 0.0 **** -0.24
10527 H 59.4619283255947 42.66829760234606 44.32566490548868 H 0.0 **** 0.06
10528 H 59.25679762018042 44.28262008317944 43.60551594260147 H 0.0 **** 0.06
10529 H 58.183833135258176 43.75246840838952 44.92349308810623 H 0.0 **** 0.06
10530 H 58.04270117139572 43.01504689387542 43.30976214972452 H 0.0 **** 0.06
10531 C 76.26851723905465 30.31977824301157 73.8736425512864 C 0.0 **** -0.24
10532 H 76.02595791762589 29.37887667554125 73.38056050397364 H 0.0 **** 0.06
10533 H 75.34906964027029 30.80604916926356 74.2009519996827 H 0.0 **** 0.06
10534 H 76.79440175633782 30.970612761633987 73.17496262081028 H 0.0 **** 0.06
10535 H 76.90328220392011 30.123862724411225 74.73705856635921 H 0.0 **** 0.06
10536 C 93.89679240183335 109.5048202218286 54.34264810533534 C 0.0 **** -0.24
10537 H 94.5629767570812 110.36733484278585 54.35544087265265 H 0.0 **** 0.06
10538 H 94.0064374422725 108.94792191323333 55.27303670941234 H 0.0 **** 0.06
10539 H 94.15307489307139 108.86085669741684 53.50105436533454 H 0.0 **** 0.06
10540 H 92.86601480829057 109.84365307148877 54.24006852227308 H 0.0 **** 0.06
10541 C 74.60929507907791 52.19780415830626 94.47060884422507 C 0.0 **** -0.24
10542 H 73.71451352812201 52.79661803484229 94.63648403811936 H 0.0 **** 0.06
10543 H 75.39334696382538 52.825833843639906 94.04658746399286 H 0.0 **** 0.06
10544 H 74.38110398410315 51.386170370277796 93.77959208519457 H 0.0 **** 0.06
10545 H 74.94939716466214 51.781878338979034 95.41946871851701 H 0.0 **** 0.06
10546 C 19.270320728028423 15.884248483412364 57.82191481994221 C 0.0 **** -0.24
10547 H 19.516949550346652 16.446777315730515 56.92198692286462 H 0.0 **** 0.06
10548 H 18.65218387249857 15.026145662436079 57.556546875342406 H 0.0 **** 0.06
10549 H 18.724634790427785 16.52568861603885 58.51365980677036 H 0.0 **** 0.06
10550 H 20.188565294114255 15.536484515564325 58.296008597880814 H 0.0 **** 0.06
10551 C 89.68921087475616 75.24716159700488 2.3870162584302363 C 0.0 **** -0.24
10552 H 89.74030797914565 76.10518124161278 1.7167341488814714 H 0.0 **** 0.06
10553 H 90.66286270855178 74.75821116390077 2.42551736145424 H 0.0 **** 0.06
10554 H 88.94225899010107 74.54366682994073 2.0203519904786447 H 0.0 **** 0.06
10555 H 89.4115177903 75.58376122884317 3.385974206444047 H 0.0 **** 0.06
10556 C 32.63752532842648 25.72730444503327 29.44508114164742 C 0.0 **** -0.24
10557 H 32.36031284234099 26.70627835763355 29.05294839224706 H 0.0 **** 0.06
10558 H 32.043595881360034 25.510839003017338 30.333026665766425 H 0.0 **** 0.06
10559 H 33.69550185874817 25.72725067561322 29.70543924083924 H 0.0 **** 0.06
10560 H 32.449173012166966 24.96622697602311 28.68756860383587 H 0.0 **** 0.06
10561 C 58.31408454694138 91.57731472703686 13.894638416736285 C 0.0 **** -0.24
10562 H 57.25877580854668 91.84235269403095 13.834779879760902 H 0.0 **** 0.06
10563 H 58.40973730388841 90.50901097865645 14.093601928238087 H 0.0 **** 0.06
10564 H 58.78542450494217 92.1408048622544 14.699503133617043 H 0.0 **** 0.06
10565 H 58.80310226088699 91.81597330377974 12.950158934296525 H 0.0 **** 0.06
10566 C 102.94620697620658 84.79704271234479 41.21005926968901 C 0.0 **** -0.24
10567 H 103.78528804378126 85.4765546217069 41.06597880280691 H 0.0 **** 0.06
10568 H 102.65690064446505 84.36763273741497 40.250874901178136 H 0.0 **** 0.06
10569 H 102.10308552731448 85.34488922173904 41.63217680089764 H 0.0 **** 0.06
10570 H 103.23760698870481 83.99775743446651 41.89276337632194 H 0.0 **** 0.06
10571 C 9.508465656222548 109.95543733858611 60.06226681329589 C 0.0 **** -0.24
10572 H 8.633002394973586 109.76259687813224 59.443053349441726 H 0.0 **** 0.06
10573 H 9.203158868041585 110.04594567661795 61.10458764886366 H 0.0 **** 0.06
10574 H 9.98394182217906 110.8826737991689 59.74115509355386 H 0.0 **** 0.06
10575 H 10.21375953969593 109.13053300042522 59.96027116132423 H 0.0 **** 0.06
10576 C 107.91016898853786 16.104334145055077 52.76453470023562 C 0.0 **** -0.24
10577 H 108.34524109263161 15.419358681911262 52.03629116482055 H 0.0 **** 0.06
10578 H 106.82338774297929 16.028069832475936 52.73211551479504 H 0.0 **** 0.06
10579 H 108.21079952575887 17.1247915412213 52.52621404458969 H 0.0 **** 0.06
10580 H 108.26359832546328 15.845263508112865 53.76284520722873 H 0.0 **** 0.06
10581 C 58.63267486840897 100.17651028076824 0.7812690490013949 C 0.0 **** -0.24
10582 H 57.97655093270629 100.36287619158146 -0.06870497363915717 H 0.0 **** 0.06
10583 H 58.70306590415578 101.07776432474091 1.390940290596859 H 0.0 **** 0.06
10584 H 59.62436893900178 99.90350612409668 0.42065799971832973 H 0.0 **** 0.06
10585 H 58.22714344814224 99.36226487275177 1.3813593648659008 H 0.0 **** 0.06
10586 C 10.038826461789057 21.11455811720242 50.64455989590302 C 0.0 **** -0.24
10587 H 9.907493423313127 22.079065593274663 51.13623229885412 H 0.0 **** 0.06
10588 H 9.207381144119267 20.939771219111748 49.96132275988612 H 0.0 **** 0.06
10589 H 10.06479073956487 20.325145802142004 51.39582469079611 H 0.0 **** 0.06
10590 H 10.97448188195105 21.11641041716706 50.086857327992625 H 0.0 **** 0.06
10591 C 46.118375327812714 98.37533563928366 10.180441634758282 C 0.0 **** -0.24
10592 H 45.232047728741634 98.34669333042086 10.815576126051823 H 0.0 **** 0.06
10593 H 47.011689468037616 98.40371654030889 10.803870116424022 H 0.0 **** 0.06
10594 H 46.08459895276212 99.26448346305938 9.550279693461562 H 0.0 **** 0.06
10595 H 46.14262185124005 97.48467351312524 9.551425031942145 H 0.0 **** 0.06
10596 C 91.5123594261706 72.61792474857398 63.5280101382686 C 0.0 **** -0.24
10597 H 90.76495274570914 71.8295739328095 63.43973801823893 H 0.0 **** 0.06
10598 H 92.05825164329337 72.49807678227576 64.46467815031929 H 0.0 **** 0.06
10599 H 91.01709545596682 73.58962757784212 63.51742624855797 H 0.0 **** 0.06
10600 H 92.20776798013674 72.55559148274683 62.69152212700777 H 0.0 **** 0.06
10601 C 108.77151786001141 38.24397148945174 107.93703785148767 C 0.0 **** -0.24
10602 H 109.35116129547114 38.49270912418643 108.82666241736922 H 0.0 **** 0.06
10603 H 109.178363726491 37.34028424252814 107.48009072449275 H 0.0 **** 0.06
10604 H 108.82748075869543 39.06812506777206 107.22589246241108 H 0.0 **** 0.06
10605 H 107.73214167480128 38.07357794966197 108.21656582385651 H 0.0 **** 0.06
10606 C 14.156077385214505 91.77591365041673 18.04007748786779 C 0.0 **** -0.24
10607 H 14.585610708450847 92.0272514170582 19.01005130400887 H 0.0 **** 0.06
10608 H 14.253445021313905 92.62873186890808 17.368091346930726 H 0.0 **** 0.06
10609 H 13.101423358477675 91.5286306891645 18.163291850066003 H 0.0 **** 0.06
10610 H 14.683392230197025 90.91938934355127 17.619703947799962 H 0.0 **** 0.06
10611 C 79.34070495705825 54.93627220456227 102.97833057904757 C 0.0 **** -0.24
10612 H 79.22933848933516 54.39106974870941 103.91586593829453 H 0.0 **** 0.06
10613 H 79.30497027562467 56.00761904840516 103.17605692337582 H 0.0 **** 0.06
10614 H 78.53220959283146 54.66302210183119 102.30063792467772 H 0.0 **** 0.06
10615 H 80.29748093749203 54.682598166570756 102.52276181602608 H 0.0 **** 0.06
10616 C 48.34653546716703 30.31234982087463 88.17182700040672 C 0.0 **** -0.24
10617 H 49.161607673735546 29.826305045302433 87.63615221361476 H 0.0 **** 0.06
10618 H 48.71574014608592 30.69460850431551 89.12442084071006 H 0.0 **** 0.06
10619 H 47.55039793347348 29.59100744557975 88.35441918816139 H 0.0 **** 0.06
10620 H 47.959486635688336 31.137505031373095 87.57450901058917 H 0.0 **** 0.06
10621 C 29.479476262096853 73.78630806198511 42.52116411659017 C 0.0 **** -0.24
10622 H 28.891492977671263 72.89824463484925 42.7554967823545 H 0.0 **** 0.06
10623 H 30.20094596212465 73.96371889986366 43.31944956438343 H 0.0 **** 0.06
10624 H 28.81751443052528 74.64684492513432 42.43006242672277 H 0.0 **** 0.06
10625 H 30.008265781546697 73.63272822497379 41.58014252228372 H 0.0 **** 0.06
10626 C 16.497451494393545 97.43345205842252 84.48414359614574 C 0.0 **** -0.24
10627 H 15.659735292352138 98.12937382337071 84.54379483819083 H 0.0 **** 0.06
10628 H 16.146948851798243 96.42410121215315 84.70160058038132 H 0.0 **** 0.06
10629 H 17.258711964088093 97.71800719639128 85.2104015354033 H 0.0 **** 0.06
10630 H 16.923016479296507 97.46256786884325 83.48078549752763 H 0.0 **** 0.06
10631 C 59.848337830431774 97.84377237279031 49.241545568230606 C 0.0 **** -0.24
10632 H 60.103398710472064 98.51064812071388 48.41832847409805 H 0.0 **** 0.06
10633 H 59.48448660472047 96.89672943850465 48.842508328896656 H 0.0 **** 0.06
10634 H 59.07189746427423 98.30236987966418 49.853995096338764 H 0.0 **** 0.06
10635 H 60.73435270737977 97.66416890385727 49.85144475792407 H 0.0 **** 0.06
10636 C 79.46565492302341 84.95924389014289 92.82584547141818 C 0.0 **** -0.24
10637 H 79.70327987863755 84.85843405251651 91.76659926989146 H 0.0 **** 0.06
10638 H 79.93659551790881 84.1484730267224 93.38110330511392 H 0.0 **** 0.06
10639 H 78.38500132528011 84.91298931921706 92.96084195958971 H 0.0 **** 0.06
10640 H 79.8375883709137 85.91534649308403 93.19201343356502 H 0.0 **** 0.06
10641 C 52.68118501600145 103.43547050483835 76.00554331661253 C 0.0 **** -0.24
10642 H 53.597128621774885 104.00625186901911 76.15771646465538 H 0.0 **** 0.06
10643 H 51.95312345839386 103.70552480525987 76.77053663732465 H 0.0 **** 0.06
10644 H 52.902432871755536 102.37066391136838 76.07264022071156 H 0.0 **** 0.06
10645 H 52.2725963179613 103.66022527492453 75.02023457793992 H 0.0 **** 0.06
10646 C 22.41261318119291 102.12796845637284 2.4174551282785046 C 0.0 **** -0.24
10647 H 22.611179877589166 101.6440515440198 1.4612598494194344 H 0.0 **** 0.06
10648 H 22.962820477273 101.61441326837033 3.2051109350671254 H 0.0 **** 0.06
10649 H 21.344766427914777 102.08434945931644 2.6311123622602963 H 0.0 **** 0.06
10650 H 22.731078851189835 103.16891146307911 2.3701903309031422 H 0.0 **** 0.06
10651 C 49.85970628397965 38.79015802738768 81.00240082942372 C 0.0 **** -0.24
10652 H 50.66190632862393 39.4030337569772 81.41293601552809 H 0.0 **** 0.06
10653 H 49.149620651217504 38.545155262915294 81.79226269880141 H 0.0 **** 0.06
10654 H 50.27883628888958 37.87236819569257 80.59088222953085 H 0.0 **** 0.06
10655 H 49.34918249490781 39.34290778175029 80.21284717387366 H 0.0 **** 0.06
10656 C 100.26960565937684 23.64763214262473 35.49026850623173 C 0.0 **** -0.24
10657 H 101.0173621007287 23.859952127379643 36.25496668494674 H 0.0 **** 0.06
10658 H 99.86757110367222 24.585120605746084 35.10575798296625 H 0.0 **** 0.06
10659 H 99.46234324320947 23.05770221107437 35.92537176345951 H 0.0 **** 0.06
10660 H 100.73006447834196 23.08852574013133 34.67647223111982 H 0.0 **** 0.06
10661 C 104.93872750330476 28.827848820801364 46.59123189275102 C 0.0 **** -0.24
10662 H 103.90725855707697 28.755541171716914 46.24786168989764 H 0.0 **** 0.06
10663 H 105.44337909875851 27.874897565250535 46.42845455088839 H 0.0 **** 0.06
10664 H 104.95103245511615 29.06862237738136 47.6545504940852 H 0.0 **** 0.06
10665 H 105.45324285472027 29.611939511108346 46.0349796869491 H 0.0 **** 0.06
10666 C 80.60978781680353 75.9274196668764 60.32246990032485 C 0.0 **** -0.24
10667 H 80.47164770975417 74.87553580643771 60.5713942999966 H 0.0 **** 0.06
10668 H 81.2059349658216 76.00989574256107 59.412535776568234 H 0.0 **** 0.06
10669 H 81.1245613281439 76.43044278150904 61.14113143991108 H 0.0 **** 0.06
10670 H 79.63728760578203 76.39352710398748 60.162616993855806 H 0.0 **** 0.06
10671 C 25.76296419757685 23.33004122679074 65.01175455451225 C 0.0 **** -0.24
10672 H 26.230117660869183 23.224284071271313 64.03208325689141 H 0.0 **** 0.06
10673 H 24.70280678531421 23.08999719532136 64.93695610492257 H 0.0 **** 0.06
10674 H 25.88025676429703 24.355547290089362 65.36137073984962 H 0.0 **** 0.06
10675 H 26.241671050059637 22.650191953428248 65.71669033604938 H 0.0 **** 0.06
10676 C 43.23700382114481 4.275193709699437 52.49527766250384 C 0.0 **** -0.24
10677 H 43.467884354204614 3.5577869397211543 51.707788971574075 H 0.0 **** 0.06
10678 H 43.876137724528576 5.151917586436156 52.38545105186523 H 0.0 **** 0.06
10679 H 43.41361363730084 3.8169035343031794 53.4673032366527 H 0.0 **** 0.06
10680 H 42.19256656313297 4.575324568776608 52.418871209370195 H 0.0 **** 0.06
10681 C 28.873403877421367 33.31635071735417 32.52397234587809 C 0.0 **** -0.24
10682 H 29.667483285799705 33.50745444549591 31.8013167910255 H 0.0 **** 0.06
10683 H 28.65007399355258 32.24935371434145 32.5442436029071 H 0.0 **** 0.06
10684 H 27.978912483901297 33.86947584075011 32.23628760022655 H 0.0 **** 0.06
10685 H 29.197956443019336 33.63865924175923 33.51367867145089 H 0.0 **** 0.06
10686 C 13.219764225917032 1.793615113413905 48.22903692087732 C 0.0 **** -0.24
10687 H 12.919182061616183 2.537485610432098 48.96749803967009 H 0.0 **** 0.06
10688 H 13.672448557585739 2.2930928347659707 47.37363261078286 H 0.0 **** 0.06
10689 H 12.344023101101996 1.232824504637109 47.90148213572513 H 0.0 **** 0.06
10690 H 13.941634812776897 1.11003816888278 48.676670902056685 H 0.0 **** 0.06
10691 C 58.73922487387502 41.52801847263203 108.04857849105156 C 0.0 **** -0.24
10692 H 58.72032643616073 40.8363486175063 107.20548865843386 H 0.0 **** 0.06
10693 H 59.57939124084572 41.2846937254659 108.69868175655392 H 0.0 **** 0.06
10694 H 57.80846058051242 41.442903934525646 108.60873475419442 H 0.0 **** 0.06
10695 H 58.84846541045614 42.547857141034 107.6789877004694 H 0.0 **** 0.06
10696 C 77.61620683453589 60.1733262480673 54.28009743397291 C 0.0 **** -0.24
10697 H 77.08292010951232 60.33690411770537 53.34307857916474 H 0.0 **** 0.06
10698 H 78.41465820388453 60.90880885621068 54.375498945746415 H 0.0 **** 0.06
10699 H 78.04391580551459 59.17049859874142 54.28403435900515 H 0.0 **** 0.06
10700 H 76.92364094253719 60.27656627777449 55.11467496128654 H 0.0 **** 0.06
10701 C 1.5920548455112424 3.045611484054916 75.7036946632 C 0.0 **** -0.24
10702 H 1.6849787847321522 3.211585318112725 74.63115259848382 H 0.0 **** 0.06
10703 H 1.5458580670931497 1.9744898788624141 75.90336979142637 H 0.0 **** 0.06
10704 H 0.6818530264503551 3.5224718719012458 76.06745633661973 H 0.0 **** 0.06
10705 H 2.4552555978376063 3.473898575429587 76.21376170885117 H 0.0 **** 0.06
10706 C 54.72835978436706 55.17379376062318 82.06151535819197 C 0.0 **** -0.24
10707 H 55.14057711433094 55.5717988334322 81.13376290489134 H 0.0 **** 0.06
10708 H 53.63964550864421 55.18048602090721 82.00791333382438 H 0.0 **** 0.06
10709 H 55.05572279217495 55.792391644556645 82.89778977804917 H 0.0 **** 0.06
10710 H 55.07986267397166 54.152316255565864 82.20555402556931 H 0.0 **** 0.06
10711 C 87.23281295609888 83.24634388877095 50.47090458651067 C 0.0 **** -0.24
10712 H 86.95361669077505 82.37423042010987 49.87970895722479 H 0.0 **** 0.06
10713 H 88.21449946502008 83.0825012008622 50.917469248831225 H 0.0 **** 0.06
10714 H 86.49657776625963 83.39997324387576 51.25903746405993 H 0.0 **** 0.06
10715 H 87.26678653088851 84.12463702269304 49.8282261501852 H 0.0 **** 0.06
10716 C 34.173243291771826 61.52582221283802 94.43280103600392 C 0.0 **** -0.24
10717 H 34.89329835476369 60.7298499286876 94.23913215847745 H 0.0 **** 0.06
10718 H 34.69116326555141 62.484059612550254 94.46322606349878 H 0.0 **** 0.06
10719 H 33.68277980048856 61.34554965756374 95.38943947695586 H 0.0 **** 0.06
10720 H 33.426599203930834 61.540437752118606 93.63808612975157 H 0.0 **** 0.06
10721 C 7.407669633222696 82.41781241980837 106.69395765646082 C 0.0 **** -0.24
10722 H 7.952668074525803 82.04812078776803 107.56266102351915 H 0.0 **** 0.06
10723 H 6.428787469546762 82.78119696334426 107.00658860442145 H 0.0 **** 0.06
10724 H 7.283077756821314 81.61019071864882 105.97286628489371 H 0.0 **** 0.06
10725 H 7.968315717194088 83.23224444305939 106.23352497278383 H 0.0 **** 0.06
10726 C 102.9781571440535 86.65551921485837 36.92060352144256 C 0.0 **** -0.24
10727 H 101.89691957243953 86.52371913237484 36.946809150879886 H 0.0 **** 0.06
10728 H 103.33219546062196 86.55577290711163 35.89471792463581 H 0.0 **** 0.06
10729 H 103.4515180856657 85.89669234322508 37.54448891225681 H 0.0 **** 0.06
10730 H 103.2327450192175 87.64595072808224 37.29872942072433 H 0.0 **** 0.06
10731 C 92.14642090522962 25.904567805910148 78.69460294897263 C 0.0 **** -0.24
10732 H 91.86611628275104 25.957997784154188 77.64302306862635 H 0.0 **** 0.06
10733 H 92.31799400282742 24.8648024454769 78.97317861514381 H 0.0 **** 0.06
10734 H 91.34397704507197 26.317764348704745 79.30529614078131 H 0.0 **** 0.06
10735 H 93.05864853065667 26.479879681944837 78.856500445535 H 0.0 **** 0.06
10736 C 52.45647749771605 17.27869209707046 31.61272490115897 C 0.0 **** -0.24
10737 H 51.847791724770104 18.12045797153786 31.941274013756924 H 0.0 **** 0.06
10738 H 52.680542165891374 16.637398721982265 32.46509955963501 H 0.0 **** 0.06
10739 H 53.387123760878424 17.6498549420362 31.18300239948792 H 0.0 **** 0.06
10740 H 51.911838422345284 16.707225832883864 30.86129938565466 H 0.0 **** 0.06
10741 C 81.14437311898298 14.037015104438236 101.8126050566823 C 0.0 **** -0.24
10742 H 81.59675129887626 13.602620653615194 102.70443082731245 H 0.0 **** 0.06
10743 H 80.3570776153401 14.731402860245474 102.10682128652545 H 0.0 **** 0.06
10744 H 80.71939684106687 13.244171070143242 101.19694667797361 H 0.0 **** 0.06
10745 H 81.90603045905308 14.570934902179427 101.24308547827287 H 0.0 **** 0.06
10746 C 103.6537690760058 104.65623167538905 3.329676394441435 C 0.0 **** -0.24
10747 H 104.12412763939858 105.15934655735163 4.174299358513878 H 0.0 **** 0.06
10748 H 104.25767822953725 104.80721132104367 2.434458178808754 H 0.0 **** 0.06
10749 H 102.65773895457244 105.07060674922451 3.169744876515935 H 0.0 **** 0.06
10750 H 103.57415339789003 103.59022314739406 3.5399924320246754 H 0.0 **** 0.06
10751 C 42.81140945896533 79.50876709252259 48.05305381899722 C 0.0 **** -0.24
10752 H 42.80431947440121 79.38452713613464 49.13579519285827 H 0.0 **** 0.06
10753 H 43.56474992757586 80.24630555018126 47.776500231449496 H 0.0 **** 0.06
10754 H 41.830035234300794 79.84758786377688 47.720772525314075 H 0.0 **** 0.06
10755 H 43.045302232548636 78.55483372247653 47.579587805344396 H 0.0 **** 0.06
10756 C 61.07934462677359 49.73413497925537 77.75374327119545 C 0.0 **** -0.24
10757 H 61.49853486828529 49.06352810162963 78.50378772572446 H 0.0 **** 0.06
10758 H 61.156858612664834 50.7636322622119 78.10306783090459 H 0.0 **** 0.06
10759 H 60.032223023244526 49.48409275041524 77.58809340355458 H 0.0 **** 0.06
10760 H 61.63145227084999 49.62516992612507 76.81966428443968 H 0.0 **** 0.06
10761 C 75.84215129038705 39.62565925733789 34.538292059229946 C 0.0 **** -0.24
10762 H 74.8789208343179 40.12125063725784 34.4161691037321 H 0.0 **** 0.06
10763 H 76.39070045244827 40.09475440890495 35.355125757691354 H 0.0 **** 0.06
10764 H 76.41634371066738 39.71439887545998 33.616376094406945 H 0.0 **** 0.06
10765 H 75.68223654440905 38.57132174035401 34.76541634334083 H 0.0 **** 0.06
10766 C 79.29660025082336 48.80172662989122 52.91640783713541 C 0.0 **** -0.24
10767 H 79.45907404137411 49.85957522193979 52.709044936708096 H 0.0 **** 0.06
10768 H 79.14689438295646 48.661033180895004 53.98769506604242 H 0.0 **** 0.06
10769 H 80.16716177485556 48.23099824464421 52.592820931185315 H 0.0 **** 0.06
10770 H 78.41491512800737 48.4577969948661 52.37710050174195 H 0.0 **** 0.06
10771 C 50.5642582504488 73.27473008256072 11.00526580552652 C 0.0 **** -0.24
10772 H 50.99265807704839 74.16150778776151 10.538144170431124 H 0.0 **** 0.06
10773 H 50.21061076350469 72.59147506092387 10.232687785990706 H 0.0 **** 0.06
10774 H 49.72822275715336 73.56815483686475 11.641222069151283 H 0.0 **** 0.06
10775 H 51.32396849162021 72.77934099282785 11.609321844647468 H 0.0 **** 0.06
10776 C 32.29220361433221 80.38841714706166 62.52825220218301 C 0.0 **** -0.24
10777 H 33.07010920169212 79.64502828964572 62.35066645992953 H 0.0 **** 0.06
10778 H 31.378042517983545 80.08705418778192 62.01540557809773 H 0.0 **** 0.06
10779 H 32.62094109830147 81.35593618688233 62.14673367417703 H 0.0 **** 0.06
10780 H 32.10130680194126 80.46572813357596 63.597657198785214 H 0.0 **** 0.06
10781 C 26.9346790007831 40.03068129827187 45.49018498631614 C 0.0 **** -0.24
10782 H 26.166839428571095 39.53497646636296 44.89533719473252 H 0.0 **** 0.06
10783 H 27.48540372206022 39.286248677565 46.0658507964086 H 0.0 **** 0.06
10784 H 26.464924490104828 40.74227675134236 46.16980207231967 H 0.0 **** 0.06
10785 H 27.621297799457878 40.55887675030846 44.828401837444915 H 0.0 **** 0.06
10786 C 77.85112401359208 79.12201691418466 82.50223785299534 C 0.0 **** -0.24
10787 H 77.41790795149944 79.47653061563165 81.56752904420483 H 0.0 **** 0.06
10788 H 77.08718840470243 79.12267192937821 83.27957862502018 H 0.0 **** 0.06
10789 H 78.66995066652115 79.77957987825252 82.79600756897943 H 0.0 **** 0.06
10790 H 78.23042719259266 78.10913246165148 82.36569506315345 H 0.0 **** 0.06
10791 C 39.84009889838299 21.24508866058386 53.623999128421026 C 0.0 **** -0.24
10792 H 39.17670103287847 22.09685623626612 53.76983444312839 H 0.0 **** 0.06
10793 H 40.85091917303333 21.515603979376834 53.93014548975116 H 0.0 **** 0.06
10794 H 39.84235812637914 20.96212748735296 52.5720112320298 H 0.0 **** 0.06
10795 H 39.49110978571622 20.405787828515926 54.22588156161025 H 0.0 **** 0.06
10796 C 44.086418425032335 92.82002350648689 96.24182847805025 C 0.0 **** -0.24
10797 H 44.753653361216976 93.40942070418048 95.61292290832299 H 0.0 **** 0.06
10798 H 43.1054150229736 92.75676225283009 95.76995972793273 H 0.0 **** 0.06
10799 H 43.99228940116481 93.29570832988576 97.21750124886714 H 0.0 **** 0.06
10800 H 44.49653249025383 91.81716844727099 96.36469003004521 H 0.0 **** 0.06
10801 C 74.90033821710949 42.79676345384672 13.16320185166586 C 0.0 **** -0.24
10802 H 74.24228051233973 43.383383000554375 13.804123288632184 H 0.0 **** 0.06
10803 H 74.64102079848072 41.741022031646594 13.245258424038553 H 0.0 **** 0.06
10804 H 75.935478812584 42.94212125200028 13.473796186354605 H 0.0 **** 0.06
10805 H 74.78307832835566 43.12014315333158 12.12836588596818 H 0.0 **** 0.06
10806 C 26.115246637616053 13.72562711769514 44.61181991469693 C 0.0 **** -0.24
10807 H 26.36459421770472 14.53001835095975 43.91960732179436 H 0.0 **** 0.06
10808 H 26.195992611182277 14.089120211594093 45.63597984482665 H 0.0 **** 0.06
10809 H 26.805533454694014 12.894494895930094 44.465381863018166 H 0.0 **** 0.06
10810 H 25.09582518513207 13.388108134729123 44.42560886341641 H 0.0 **** 0.06
10811 C 100.6444537548316 18.01002986788248 39.982044148616794 C 0.0 **** -0.24
10812 H 101.18757364430685 17.658150220494974 39.10487869273786 H 0.0 **** 0.06
10813 H 100.83492453543882 17.340984704673474 40.82075455427131 H 0.0 **** 0.06
10814 H 99.57603045492874 18.027174918092527 39.764665492367975 H 0.0 **** 0.06
10815 H 100.97805853670761 19.01634023825295 40.23683437292313 H 0.0 **** 0.06
10816 C 101.73278853323858 45.503172336203875 72.87349352981482 C 0.0 **** -0.24
10817 H 101.96547875357224 45.855439640500805 71.86842798264433 H 0.0 **** 0.06
10818 H 102.30525358184993 46.079501054099694 73.60180789872027 H 0.0 **** 0.06
10819 H 101.99462208061091 44.4487046660154 72.9577243447776 H 0.0 **** 0.06
10820 H 100.66751193830068 45.6307827201756 73.0658008278246 H 0.0 **** 0.06
10821 C 100.93838381286919 31.707523628836555 1.6250159666136028 C 0.0 **** -0.24
10822 H 101.51436692845567 30.804720819709217 1.8297580034792702 H 0.0 **** 0.06
10823 H 101.55011666669849 32.5842403283404 1.8385071666479718 H 0.0 **** 0.06
10824 H 100.04908340027752 31.72159622122939 2.2557897070558965 H 0.0 **** 0.06
10825 H 100.64096502472397 31.717656633126097 0.5772216000683841 H 0.0 **** 0.06
10826 C 53.53857145993254 94.53979402651639 17.894644465795725 C 0.0 **** -0.24
10827 H 54.21828243752941 95.2924730484954 18.2920258005875 H 0.0 **** 0.06
10828 H 53.774372895538704 94.35266303542299 16.846970177707522 H 0.0 **** 0.06
10829 H 52.5121048365296 94.89733170177395 17.978369207711456 H 0.0 **** 0.06
10830 H 53.648600433351135 93.61568840986541 18.462263329490764 H 0.0 **** 0.06
10831 C 79.12222757275413 90.93237481641145 76.73113287949258 C 0.0 **** -0.24
10832 H 80.0522613495171 90.5554100099904 76.306400718693 H 0.0 **** 0.06
10833 H 78.73877119362123 90.21833905818492 77.45981309804128 H 0.0 **** 0.06
10834 H 78.3894541558821 91.07044030687834 75.93658286045752 H 0.0 **** 0.06
10835 H 79.30924673456377 91.88818037930325 77.22202325605107 H 0.0 **** 0.06
10836 C 17.960267578037048 14.832333635702426 91.40101639433148 C 0.0 **** -0.24
10837 H 17.200767970598676 15.484480961040177 91.83196758841612 H 0.0 **** 0.06
10838 H 17.48017692057806 14.07684243810985 90.77842842356789 H 0.0 **** 0.06
10839 H 18.515483239482265 14.343885202046252 92.20192739993507 H 0.0 **** 0.06
10840 H 18.644254426937238 15.424328284118928 90.79308708342413 H 0.0 **** 0.06
10841 C 40.710774360721075 27.219127138969498 46.29482818744992 C 0.0 **** -0.24
10842 H 40.57151547435345 28.075615724045235 46.954406835772204 H 0.0 **** 0.06
10843 H 39.99249431649645 26.44124579314547 46.55262867370408 H 0.0 **** 0.06
10844 H 41.72360119540974 26.832236729574845 46.410307115409694 H 0.0 **** 0.06
10845 H 40.55547882792746 27.529391977504872 45.260934179175365 H 0.0 **** 0.06
10846 C 3.121082914473618 85.0587049756673 35.60775745663443 C 0.0 **** -0.24
10847 H 3.5111238659479795 85.95952446733642 36.081590795006576 H 0.0 **** 0.06
10848 H 2.906518013389018 85.26398973079361 34.55804801911111 H 0.0 **** 0.06
10849 H 2.205747921507168 84.74965619523813 36.11240825638447 H 0.0 **** 0.06
10850 H 3.8622199269114503 84.26174481004733 35.678384796377486 H 0.0 **** 0.06
10851 C 25.173381041355032 92.09847074318259 100.84073485745512 C 0.0 **** -0.24
10852 H 24.32423372334577 91.96405195055496 100.17040869050413 H 0.0 **** 0.06
10853 H 26.026333008469845 91.53306333133145 100.46436646003667 H 0.0 **** 0.06
10854 H 24.909378748622956 91.74063712640566 101.83614916743721 H 0.0 **** 0.06
10855 H 25.431937165169323 93.15655622572183 100.89166244201112 H 0.0 **** 0.06
10856 C 106.29280378315575 98.93442331713072 24.465237223450178 C 0.0 **** -0.24
10857 H 105.52231340517943 99.40208281789147 25.077721402977524 H 0.0 **** 0.06
10858 H 106.09176457086556 99.13343160104436 23.412970323455653 H 0.0 **** 0.06
10859 H 106.29080487671246 97.85804705948512 24.63862383134526 H 0.0 **** 0.06
10860 H 107.2676720534169 99.34291096162731 24.73328102723442 H 0.0 **** 0.06
10861 C 110.59844026430316 71.1608888846211 86.92784008917482 C 0.0 **** -0.24
10862 H 111.49528731850566 70.94617590312976 86.34818730963457 H 0.0 **** 0.06
10863 H 110.64431279664923 70.62773147638586 87.87776621876918 H 0.0 **** 0.06
10864 H 109.71888512708517 70.83597073524277 86.37097677733715 H 0.0 **** 0.06
10865 H 110.5344619684336 72.2330556229291 87.115826893259 H 0.0 **** 0.06
10866 C 91.95948196336644 55.97868142717488 34.582148296704986 C 0.0 **** -0.24
10867 H 91.55124366507738 56.24468892876473 35.55745863713724 H 0.0 **** 0.06
10868 H 91.1445926731451 55.86221264631274 33.86771691757245 H 0.0 **** 0.06
10869 H 92.50865951221243 55.04048038980153 34.66299740139653 H 0.0 **** 0.06
10870 H 92.63184405225132 56.76640513561307 34.243518307627255 H 0.0 **** 0.06
10871 C 43.70456185528032 74.11110278869896 36.17868391818334 C 0.0 **** -0.24
10872 H 43.113208873528656 74.96906887563198 36.50111788065104 H 0.0 **** 0.06
10873 H 43.572048763298014 73.96248200519523 35.10633325285994 H 0.0 **** 0.06
10874 H 43.372929247237735 73.22031057973555 36.71345289092412 H 0.0 **** 0.06
10875 H 44.75640238665917 74.2944462271454 36.39397981475662 H 0.0 **** 0.06
10876 C 21.141845777215366 35.10499912868582 86.2028086612017 C 0.0 **** -0.24
10877 H 21.360843340781486 34.14044931290488 86.66025420460274 H 0.0 **** 0.06
10878 H 21.57672486112756 35.901130812391585 86.80805515230661 H 0.0 **** 0.06
10879 H 20.062132474406013 35.24114281910008 86.14263555469604 H 0.0 **** 0.06
10880 H 21.567562059722718 35.136282082802666 85.20023960226919 H 0.0 **** 0.06
10881 C 97.51193945644467 63.63709432758549 37.34425565755775 C 0.0 **** -0.24
10882 H 97.65037685745068 62.96161511367214 38.188767751175995 H 0.0 **** 0.06
10883 H 98.42169360074453 63.65811157120882 36.74352989018562 H 0.0 **** 0.06
10884 H 97.2968584455632 64.64030794845326 37.71333066651145 H 0.0 **** 0.06
10885 H 96.67960614911914 63.2889106073751 36.732834295957126 H 0.0 **** 0.06
10886 C 55.36717761490701 103.19543486032761 42.44583191134476 C 0.0 **** -0.24
10887 H 55.19678176281016 102.75441800967555 41.46324035389176 H 0.0 **** 0.06
10888 H 54.510325340646176 103.81023253185087 42.72119844843578 H 0.0 **** 0.06
10889 H 56.26385111717437 103.81461278670122 42.41359722873877 H 0.0 **** 0.06
10890 H 55.4981837100353 102.40259276006603 43.18216100271118 H 0.0 **** 0.06
10891 C 69.65926216886366 53.44542022058917 109.51747271376192 C 0.0 **** -0.24
10892 H 70.31306894147487 52.703288227293115 109.05934877822826 H 0.0 **** 0.06
10893 H 68.72784426849236 53.5055066663692 108.95463700309693 H 0.0 **** 0.06
10894 H 70.15156747714337 54.417972976966325 109.51169698517094 H 0.0 **** 0.06
10895 H 69.4440353313836 53.15343649076232 110.546088637425 H 0.0 **** 0.06
10896 C 30.141515490526558 16.083716780695198 34.862009493993696 C 0.0 **** -0.24
10897 H 29.940980499224338 15.055959602264352 35.162524994730205 H 0.0 **** 0.06
10898 H 29.20177690634449 16.632360651566813 34.79665628000464 H 0.0 **** 0.06
10899 H 30.634825382898498 16.088516807982955 33.890429850572474 H 0.0 **** 0.06
10900 H 30.788518626785873 16.55849893099679 35.59976053162569 H 0.0 **** 0.06
10901 C 88.37236482922535 53.00022942958645 44.93613420768719 C 0.0 **** -0.24
10902 H 89.13719834066586 52.32675384521214 44.55066563607252 H 0.0 **** 0.06
10903 H 88.30696844996719 52.89463389990092 46.0189244077572 H 0.0 **** 0.06
10904 H 87.41013864958857 52.752117151722786 44.48745855527375 H 0.0 **** 0.06
10905 H 88.63513785744442 54.02904950328082 44.685665783338095 H 0.0 **** 0.06
10906 C 56.6236862860438 23.47153950290246 15.505277356760786 C 0.0 **** -0.24
10907 H 57.054331471781154 23.507405453415316 14.503869766119323 H 0.0 **** 0.06
10908 H 55.87152637877502 24.25513719989752 15.605212025998526 H 0.0 **** 0.06
10909 H 57.41040822920881 23.625602428406353 16.244614215304892 H 0.0 **** 0.06
10910 H 56.15913856433054 22.499162655352762 15.665353445620326 H 0.0 **** 0.06
10911 C 69.72551437735535 95.52767109829281 93.43577845973824 C 0.0 **** -0.24
10912 H 69.5835218145055 94.49474366688246 93.75559845572839 H 0.0 **** 0.06
10913 H 68.78072135038144 96.06637243560424 93.51892182844608 H 0.0 **** 0.06
10914 H 70.06246987130805 95.54365687100778 92.39908409618262 H 0.0 **** 0.06
10915 H 70.47351980640121 96.00440297169847 94.06888058870487 H 0.0 **** 0.06
10916 C 58.37879799473876 106.46894648233422 37.38512169531989 C 0.0 **** -0.24
10917 H 58.13823656874672 105.41127373303229 37.49217440394966 H 0.0 **** 0.06
10918 H 59.209671506356415 106.72085139338964 38.04506935791534 H 0.0 **** 0.06
10919 H 57.50870915061063 107.06850309299301 37.65134522975676 H 0.0 **** 0.06
10920 H 58.65989663178311 106.67471236183437 36.352131033639324 H 0.0 **** 0.06
10921 C 30.390825286809076 11.066455801054701 79.4188710211052 C 0.0 **** -0.24
10922 H 29.830554005750457 10.332873383075963 79.99875951922975 H 0.0 **** 0.06
10923 H 31.456988817120106 10.850452749635139 79.49259873061176 H 0.0 **** 0.06
10924 H 30.1936821954817 12.06463144388806 79.80865387286539 H 0.0 **** 0.06
10925 H 30.08061567400523 11.016739498279549 78.37420738445459 H 0.0 **** 0.06
10926 C 13.265236223221109 107.89716517462466 79.24463307042996 C 0.0 **** -0.24
10927 H 13.878671640173906 108.70996567624215 78.85517948951542 H 0.0 **** 0.06
10928 H 12.443237242495968 107.700156778874 78.5566540847378 H 0.0 **** 0.06
10929 H 12.863732975738799 108.18015660111683 80.2186417054323 H 0.0 **** 0.06
10930 H 13.874868373789525 106.99957715754718 79.34960037963228 H 0.0 **** 0.06
10931 C 108.01395627001574 86.97831790616317 79.7975384770574 C 0.0 **** -0.24
10932 H 108.60245754048799 86.55870498998758 80.61215549246731 H 0.0 **** 0.06
10933 H 107.62278128118885 86.17126797688269 79.17741081928665 H 0.0 **** 0.06
10934 H 108.64392870652802 87.62908874448686 79.19129696853142 H 0.0 **** 0.06
10935 H 107.18504616037791 87.55580974050872 80.20837178516635 H 0.0 **** 0.06
10936 C 35.12061908805322 43.59375708465907 9.849995138997746 C 0.0 **** -0.24
10937 H 34.797324705718296 44.51758590834801 10.329156648428306 H 0.0 **** 0.06
10938 H 35.93988395837212 43.1563629254404 10.421523096606057 H 0.0 **** 0.06
10939 H 35.458976892107046 43.81029871706065 8.836353443415547 H 0.0 **** 0.06
10940 H 34.28681078314804 42.893159962925395 9.813210883590433 H 0.0 **** 0.06
10941 C 88.41688049553602 25.659631714349644 40.98337435179195 C 0.0 **** -0.24
10942 H 87.45135617633827 25.4160700355973 40.53870673535826 H 0.0 **** 0.06
10943 H 89.10694658063079 25.976922929266664 40.200468929307505 H 0.0 **** 0.06
10944 H 88.81711870298915 24.779863177287183 41.487173344402265 H 0.0 **** 0.06
10945 H 88.2902979935985 26.465983069256282 41.70586248323025 H 0.0 **** 0.06
10946 C 90.7189184233576 27.68374945355326 61.76509333580162 C 0.0 **** -0.24
10947 H 90.42241956798784 26.986878033924086 60.98134058758819 H 0.0 **** 0.06
10948 H 90.76523399334155 27.157730581325396 62.71909427336374 H 0.0 **** 0.06
10949 H 89.98780548113729 28.48994770596937 61.829405085947485 H 0.0 **** 0.06
10950 H 91.69839312965894 28.09913650078113 61.52954377156715 H 0.0 **** 0.06
10951 C 51.65754094964825 97.78820479588052 34.95058361130134 C 0.0 **** -0.24
10952 H 51.14732871248475 97.27266814977514 35.76450141685236 H 0.0 **** 0.06
10953 H 51.1555880536647 98.73546387472396 34.750170722807766 H 0.0 **** 0.06
10954 H 51.632377552226444 97.16631233502642 34.05511984348368 H 0.0 **** 0.06
10955 H 52.692389589911215 97.97675508353062 35.23301894646718 H 0.0 **** 0.06
10956 C 56.928282189807774 22.043091568835735 28.842612667982564 C 0.0 **** -0.24
10957 H 56.064365803999436 22.065065224135708 29.506184307888816 H 0.0 **** 0.06
10958 H 57.24509243343766 23.06293928588758 28.623899053973872 H 0.0 **** 0.06
10959 H 56.66191545705575 21.537763016929972 27.91447230547837 H 0.0 **** 0.06
10960 H 57.74408773456835 21.505008108690504 29.326909385832437 H 0.0 **** 0.06
10961 C 9.589646435195547 74.20115974321385 35.74921718899756 C 0.0 **** -0.24
10962 H 9.236775806731359 73.25193629261344 35.34571885589975 H 0.0 **** 0.06
10963 H 9.608898468290931 74.14846499979899 36.837636841544736 H 0.0 **** 0.06
10964 H 8.918354128894677 75.0010525957598 35.43585825176126 H 0.0 **** 0.06
10965 H 10.593618249604276 74.40320461674895 35.37619951147177 H 0.0 **** 0.06
10966 C 16.73067525034564 78.9438970857816 63.21259245894532 C 0.0 **** -0.24
10967 H 16.22582681112013 78.02872748818493 63.52168044770775 H 0.0 **** 0.06
10968 H 17.72154589207821 78.98216602891728 63.66453555595376 H 0.0 **** 0.06
10969 H 16.1492200923673 79.80661578296173 63.53549493189274 H 0.0 **** 0.06
10970 H 16.826009643476226 78.95545185171204 62.12663684579519 H 0.0 **** 0.06
10971 C 9.792677077230394 103.56993542485411 46.21390953258765 C 0.0 **** -0.24
10972 H 9.246055258976128 102.93770755409209 46.91398186061977 H 0.0 **** 0.06
10973 H 9.085022471418938 104.13187145676325 45.604685791668004 H 0.0 **** 0.06
10974 H 10.413399557445317 102.94707472891785 45.570285529233985 H 0.0 **** 0.06
10975 H 10.425406680356787 104.2632439901291 46.76898634373694 H 0.0 **** 0.06
10976 C 71.12093120506528 37.39762915920505 99.18751398787909 C 0.0 **** -0.24
10977 H 72.03831405208713 37.50473868012935 98.60967236849123 H 0.0 **** 0.06
10978 H 70.3043989020054 37.89932014006109 98.66775739786685 H 0.0 **** 0.06
10979 H 71.25690219713586 37.84805678281154 100.17129121454403 H 0.0 **** 0.06
10980 H 70.88354577550133 36.34044316429407 99.30205049740793 H 0.0 **** 0.06
10981 C 97.37596998678936 52.7664141759214 97.7816322274283 C 0.0 **** -0.24
10982 H 97.0802056709959 51.72096532259137 97.87199218320731 H 0.0 **** 0.06
10983 H 98.3783811490581 52.89610003454017 98.19093434753736 H 0.0 **** 0.06
10984 H 96.67445555270376 53.39156286466602 98.33245275966686 H 0.0 **** 0.06
10985 H 97.37279541537174 53.054298872672724 96.73030304054662 H 0.0 **** 0.06
10986 C 39.3757528949683 105.2815217192892 100.93402783509582 C 0.0 **** -0.24
10987 H 38.88785925855221 104.30723296519177 100.90867145761841 H 0.0 **** 0.06
10988 H 39.809146245906305 105.49566293827272 99.95686280534878 H 0.0 **** 0.06
10989 H 40.16370891491704 105.27464337026838 101.6869240525422 H 0.0 **** 0.06
10990 H 38.641846458653816 106.04803467601197 101.18241452825562 H 0.0 **** 0.06
10991 C 14.040341273996077 27.536631483576457 73.01628048602473 C 0.0 **** -0.24
10992 H 14.536900983806987 28.068188413166837 73.82798573505949 H 0.0 **** 0.06
10993 H 14.176425572932999 28.086060324346988 72.08464227498283 H 0.0 **** 0.06
10994 H 12.976072228673601 27.451553794838617 73.23601651462931 H 0.0 **** 0.06
10995 H 14.470845777440076 26.540048347732778 72.91701482789244 H 0.0 **** 0.06
10996 C 19.494041726881107 30.458415419540273 95.15614235121717 C 0.0 **** -0.24
10997 H 19.19172857172731 29.70220259609107 95.88047490185427 H 0.0 **** 0.06
10998 H 20.280111213968553 30.055486068857817 94.51712634471905 H 0.0 **** 0.06
10999 H 19.868083027983175 31.335706986658494 95.68400061543178 H 0.0 **** 0.06
11000 H 18.63658828403925 30.73927319581142 94.5457775735974 H 0.0 **** 0.06
11001 C 82.10098504097567 1.9452922072052559 69.19184971839603 C 0.0 **** -0.24
11002 H 83.04735214769715 1.71008927924575 69.67757036969006 H 0.0 **** 0.06
11003 H 81.44453190417887 1.0753554893561272 69.23577232876157 H 0.0 **** 0.06
11004 H 82.28344669718648 2.2109168675355875 68.15081946427745 H 0.0 **** 0.06
11005 H 81.62794153278224 2.7840685004558736 69.70332791188 H 0.0 **** 0.06
11006 C 52.59955123507595 75.47044811460682 85.52589575805732 C 0.0 **** -0.24
11007 H 51.64245764716188 74.99081032001283 85.73344390851423 H 0.0 **** 0.06
11008 H 52.63000555600544 76.4452325058001 86.01348953968613 H 0.0 **** 0.06
11009 H 52.7144922171305 75.59769259745872 84.44969590710679 H 0.0 **** 0.06
11010 H 53.407824986600794 74.8469872798031 85.90731263102745 H 0.0 **** 0.06
11011 C 104.72351966932283 62.74669919673596 108.28198361990624 C 0.0 **** -0.24
11012 H 104.91192721204857 62.218990902897644 107.34601760453448 H 0.0 **** 0.06
11013 H 105.04276057935365 63.784090124521526 108.18458747080187 H 0.0 **** 0.06
11014 H 105.28125220155074 62.267541630211895 109.08631014277604 H 0.0 **** 0.06
11015 H 103.65805130913661 62.71289514305852 108.50852096820775 H 0.0 **** 0.06
11016 C 28.779831302888084 93.68487387921905 20.47712106974734 C 0.0 **** -0.24
11017 H 27.7875485305523 93.64999878446578 20.92777881245998 H 0.0 **** 0.06
11018 H 28.789772068701552 94.4294291883613 19.680129612623023 H 0.0 **** 0.06
11019 H 29.02552261514853 92.70642253365654 20.064678998641362 H 0.0 **** 0.06
11020 H 29.513317013441934 93.95498289237715 21.236336802141565 H 0.0 **** 0.06
11021 C 70.63189789800361 59.03493462193914 47.893111882650885 C 0.0 **** -0.24
11022 H 69.74911023332265 59.0261529835858 47.25358739696793 H 0.0 **** 0.06
11023 H 70.49368989747006 59.763105523183626 48.69225042609901 H 0.0 **** 0.06
11024 H 71.50594464284444 59.306331952410574 47.30021175528509 H 0.0 **** 0.06
11025 H 70.77891253144645 58.04461103679142 48.32343454919413 H 0.0 **** 0.06
11026 C 49.158513518307146 97.18979733420002 32.051821241509174 C 0.0 **** -0.24
11027 H 49.65201645825363 96.23781187915603 32.24755645807244 H 0.0 **** 0.06
11028 H 49.879272072097045 98.00041793506281 32.15713534135625 H 0.0 **** 0.06
11029 H 48.345325404982084 97.33091592158536 32.76314769383566 H 0.0 **** 0.06
11030 H 48.75871105219994 97.18817566177245 31.037471635802035 H 0.0 **** 0.06
11031 C 33.67051806767074 80.62500634138377 34.74899509205056 C 0.0 **** -0.24
11032 H 33.47777699883147 79.55495999305265 34.67020780042117 H 0.0 **** 0.06
11033 H 33.109578678841785 81.15213792131425 33.976671276124534 H 0.0 **** 0.06
11034 H 34.73605848975876 80.8127805713712 34.618483952966244 H 0.0 **** 0.06
11035 H 33.35688742983905 80.97850619508199 35.731033476885955 H 0.0 **** 0.06
11036 C 104.01569263597048 15.5045459671002 108.34298931068984 C 0.0 **** -0.24
11037 H 103.73543306671678 14.89029025735914 109.19895440942726 H 0.0 **** 0.06
11038 H 104.68950915057638 14.941403342571988 107.69715463461313 H 0.0 **** 0.06
11039 H 104.51745528832981 16.40717862104725 108.69228758657624 H 0.0 **** 0.06
11040 H 103.12137121555412 15.778954604208678 107.7849303979159 H 0.0 **** 0.06
11041 C 63.568442100995085 57.73342442789885 22.301979889709713 C 0.0 **** -0.24
11042 H 63.22580393681156 57.2027876304806 23.190989153076544 H 0.0 **** 0.06
11043 H 63.20686451949969 58.76119127402899 22.330939918026388 H 0.0 **** 0.06
11044 H 63.181857577384434 57.23616758880047 21.411298201027563 H 0.0 **** 0.06
11045 H 64.65843428640851 57.730512501665174 22.275029487723174 H 0.0 **** 0.06
11046 C 65.40759100250182 12.445680756101183 45.55644023268123 C 0.0 **** -0.24
11047 H 64.85355218070873 12.155483871735328 44.663444426539655 H 0.0 **** 0.06
11048 H 65.01129715030385 11.91257021871354 46.41988565864476 H 0.0 **** 0.06
11049 H 65.30550004402784 13.519814556001052 45.71345547066575 H 0.0 **** 0.06
11050 H 66.4610721536474 12.197314436348563 45.426361857929265 H 0.0 **** 0.06
11051 C 45.42752572899656 101.50938806988472 90.4406855402793 C 0.0 **** -0.24
11052 H 46.49138162299135 101.6861564687015 90.59929608962074 H 0.0 **** 0.06
11053 H 45.168255420188665 101.75813157250525 89.41049797327908 H 0.0 **** 0.06
11054 H 44.85084247485301 102.13540693422362 91.12186140290757 H 0.0 **** 0.06
11055 H 45.20088182087405 100.4612242918294 90.63004723904609 H 0.0 **** 0.06
11056 C 93.31069930932901 70.51117950581022 86.07845830621272 C 0.0 **** -0.24
11057 H 93.18404909107143 71.58503141223702 86.21366002828142 H 0.0 **** 0.06
11058 H 93.39654654939652 70.28500178990976 85.01523929437377 H 0.0 **** 0.06
11059 H 92.44928743245363 69.98832157254924 86.4930096897786 H 0.0 **** 0.06
11060 H 94.21538770644254 70.18501396804277 86.59336001694385 H 0.0 **** 0.06
11061 C 2.7482697153341746 108.85462053478783 42.05129736661689 C 0.0 **** -0.24
11062 H 3.0235555617339855 109.57220872816309 41.27917719588103 H 0.0 **** 0.06
11063 H 1.8281920172983774 108.34410557811543 41.761848954157216 H 0.0 **** 0.06
11064 H 2.5917700641638532 109.37738383381682 42.9948688393024 H 0.0 **** 0.06
11065 H 3.547568066327031 108.12339338100004 42.16960079222039 H 0.0 **** 0.06
11066 C 4.537644985581258 72.67693034984677 24.924635781299468 C 0.0 **** -0.24
11067 H 4.961237470822622 73.41507321983602 25.60634560778579 H 0.0 **** 0.06
11068 H 4.341993163174985 73.14452546669042 23.959628058012 H 0.0 **** 0.06
11069 H 3.605065240588731 72.29420123466497 25.338754308051143 H 0.0 **** 0.06
11070 H 5.242218872425084 71.85567904212348 24.795196082193705 H 0.0 **** 0.06
11071 C 103.16193026434189 52.34548862323987 13.266960452174317 C 0.0 **** -0.24
11072 H 102.49299731689246 51.56701781502926 12.900548625910119 H 0.0 **** 0.06
11073 H 104.15631963218789 52.1973724654334 12.847274784717968 H 0.0 **** 0.06
11074 H 103.21454009889555 52.29465818617982 14.355168739439478 H 0.0 **** 0.06
11075 H 102.78200917944264 53.321879197616624 12.966721991639702 H 0.0 **** 0.06
11076 C 8.352776910484508 64.02592669534776 25.607269929819292 C 0.0 **** -0.24
11077 H 7.60940765760661 63.35487249516467 26.036862892819407 H 0.0 **** 0.06
11078 H 9.174779024796152 64.15551256027513 26.312086797516216 H 0.0 **** 0.06
11079 H 7.893669158321416 64.99324811056432 25.403438921153192 H 0.0 **** 0.06
11080 H 8.733165447781815 63.60032856141265 24.67912582487084 H 0.0 **** 0.06
11081 C 14.686726949720367 10.427685013914811 1.7881057439351107 C 0.0 **** -0.24
11082 H 13.780464535406324 10.90210351318018 2.163321960192518 H 0.0 **** 0.06
11083 H 14.900793298315563 10.794044356250168 0.7834121437008763 H 0.0 **** 0.06
11084 H 14.54614647369445 9.347212567214456 1.7585904756340458 H 0.0 **** 0.06
11085 H 15.521651983332873 10.666890673331835 2.447479403038156 H 0.0 **** 0.06
11086 C 9.636421126979144 65.49058588100173 15.064613889630621 C 0.0 **** -0.24
11087 H 9.84194887106139 64.98895696436183 16.010987800030275 H 0.0 **** 0.06
11088 H 9.330570798210204 66.51844324609823 15.258463110851611 H 0.0 **** 0.06
11089 H 8.837439248833618 64.96542950153345 14.541609638423381 H 0.0 **** 0.06
11090 H 10.536702015940818 65.48849108607074 14.449127312610845 H 0.0 **** 0.06
11091 C 3.7053160072130424 34.76893114820683 45.40354020148714 C 0.0 **** -0.24
11092 H 3.386237324725812 35.803561711802445 45.523744417586435 H 0.0 **** 0.06
11093 H 4.1914603520583 34.649060895876715 44.43531990989981 H 0.0 **** 0.06
11094 H 2.837148917574609 34.11241514344479 45.45910419410503 H 0.0 **** 0.06
11095 H 4.4070919871214755 34.51096322478918 46.19667685825365 H 0.0 **** 0.06
11096 C 48.39793167687844 72.08117337946044 38.39877175414872 C 0.0 **** -0.24
11097 H 48.27578238320433 72.02722908669654 39.48107686410448 H 0.0 **** 0.06
11098 H 48.515009620032856 71.07412929001771 37.99665763945137 H 0.0 **** 0.06
11099 H 49.281835782695225 72.67201593878656 38.16242615975957 H 0.0 **** 0.06
11100 H 47.518343117561756 72.54899347739274 37.95634767870664 H 0.0 **** 0.06
11101 C 65.666651712496 79.35775803135334 16.28863358013021 C 0.0 **** -0.24
11102 H 65.15433833841549 79.42794198438688 17.248151661986782 H 0.0 **** 0.06
11103 H 64.96595669951148 79.59064812534564 15.486572201332791 H 0.0 **** 0.06
11104 H 66.04973462292664 78.34644006707578 16.15544894128132 H 0.0 **** 0.06
11105 H 66.49433059587791 80.06666682692833 16.265946179225978 H 0.0 **** 0.06
11106 C 81.6006541148434 50.60714491388825 22.972721199355618 C 0.0 **** -0.24
11107 H 82.55040368180352 50.612519175361946 23.507998354574852 H 0.0 **** 0.06
11108 H 81.10939861567363 49.64471482535699 23.112506902505146 H 0.0 **** 0.06
11109 H 81.78260703290215 50.77222955165813 21.910909109202464 H 0.0 **** 0.06
11110 H 80.96259442581561 51.40247786772914 23.359484842669644 H 0.0 **** 0.06
11111 C 79.705384064284 47.499307266658434 72.62065324076022 C 0.0 **** -0.24
11112 H 80.24683103029895 48.43777608110568 72.49448951886899 H 0.0 **** 0.06
11113 H 80.38206806571156 46.7400692433001 73.01392943314474 H 0.0 **** 0.06
11114 H 79.31260819116841 47.174513628260094 71.65722969423078 H 0.0 **** 0.06
11115 H 78.87985913782632 47.64783013468323 73.3174224509554 H 0.0 **** 0.06
11116 C 42.2773267600486 10.137176072756882 66.2973325959498 C 0.0 **** -0.24
11117 H 41.44327762901076 10.25358773608744 65.60536720767286 H 0.0 **** 0.06
11118 H 41.941009694665375 10.355521019014672 67.3108048639802 H 0.0 **** 0.06
11119 H 43.07570753501975 10.82568474005243 66.0222878089001 H 0.0 **** 0.06
11120 H 42.647210797088526 9.113376506015827 66.24973075784686 H 0.0 **** 0.06
11121 C 78.07489320845855 84.6282985815759 107.37157624752285 C 0.0 **** -0.24
11122 H 78.54247960973507 84.93540836326045 108.30738301205461 H 0.0 **** 0.06
11123 H 78.09026552096954 83.54148421491266 107.2966970033037 H 0.0 **** 0.06
11124 H 78.6235985264773 85.05861911442571 106.53364399554198 H 0.0 **** 0.06
11125 H 77.04318259483917 84.98044819636806 107.35011394887974 H 0.0 **** 0.06
11126 C 90.50183308549758 84.54159739576467 42.613169214173865 C 0.0 **** -0.24
11127 H 89.95059997955946 84.04009769898742 43.40819739921437 H 0.0 **** 0.06
11128 H 90.9661181565666 85.44562484433273 43.007513592132085 H 0.0 **** 0.06
11129 H 89.81717364166262 84.80575197990335 41.80649915072769 H 0.0 **** 0.06
11130 H 91.27383102011281 83.8744444464801 42.229191501774096 H 0.0 **** 0.06
11131 C 34.68011982079753 84.84740181811304 36.85059866701614 C 0.0 **** -0.24
11132 H 34.13409268930508 85.78246368115407 36.72179468910372 H 0.0 **** 0.06
11133 H 35.70006782126052 84.97089767114613 36.484987345473904 H 0.0 **** 0.06
11134 H 34.184529762940315 84.05761916257177 36.28650775563265 H 0.0 **** 0.06
11135 H 34.702075961754474 84.58213948027304 37.90674281460658 H 0.0 **** 0.06
11136 C 106.05580205545236 94.0515415940442 21.15169618717772 C 0.0 **** -0.24
11137 H 105.17854033046564 93.58570418275337 20.70300019348096 H 0.0 **** 0.06
11138 H 105.76720480442192 94.56003211712506 22.071907996207983 H 0.0 **** 0.06
11139 H 106.47831342534063 94.77520247314791 20.454147020450876 H 0.0 **** 0.06
11140 H 106.79895196885067 93.28626535221494 21.37603124661365 H 0.0 **** 0.06
11141 C 76.20302056656737 77.40298225889633 110.16814032329847 C 0.0 **** -0.24
11142 H 76.1325357049692 78.25393626424373 110.84535954737362 H 0.0 **** 0.06
11143 H 76.10447684225696 76.47793741291702 110.7366857720335 H 0.0 **** 0.06
11144 H 77.1689821300576 77.41993632077167 109.66370347342136 H 0.0 **** 0.06
11145 H 75.40574391211447 77.46143393051491 109.42720370814082 H 0.0 **** 0.06
11146 C 1.986745640947106 36.14604321427652 6.690683502763255 C 0.0 **** -0.24
11147 H 2.7608541669508497 35.561309214417065 7.186935290703088 H 0.0 **** 0.06
11148 H 1.2698291860475592 36.50166509998246 7.4315442613620295 H 0.0 **** 0.06
11149 H 1.4733871917749752 35.522187138892036 5.958295980308174 H 0.0 **** 0.06
11150 H 2.4422895615483355 36.998799410350614 6.186711908006789 H 0.0 **** 0.06
11151 C 96.074263452347 37.51933411600648 34.9640032278362 C 0.0 **** -0.24
11152 H 95.2781775731961 37.688035828658656 35.689581456436684 H 0.0 **** 0.06
11153 H 95.96345668351671 38.21834860219743 34.13469425795589 H 0.0 **** 0.06
11154 H 96.01451893035613 36.49750260308912 34.58978448792893 H 0.0 **** 0.06
11155 H 97.04099596392797 37.67570113342606 35.44366184454773 H 0.0 **** 0.06
11156 C 103.06004425090104 10.96082626395605 41.24990564356716 C 0.0 **** -0.24
11157 H 102.24705605796251 10.391700288483293 41.70302224870579 H 0.0 **** 0.06
11158 H 103.85118728345076 11.109240549505358 41.98556295857264 H 0.0 **** 0.06
11159 H 102.68522472766772 11.928549023023834 40.91930070323349 H 0.0 **** 0.06
11160 H 103.45553014665664 10.411532782355437 40.39614147473566 H 0.0 **** 0.06
11161 C 17.404175757238534 38.42647226223613 16.542388052583078 C 0.0 **** -0.24
11162 H 16.550959755977544 38.00571769506297 17.07341227583774 H 0.0 **** 0.06
11163 H 17.702703132194756 37.75006503237131 15.741204291137365 H 0.0 **** 0.06
11164 H 18.235331419505087 38.55720260580355 17.23567053229209 H 0.0 **** 0.06
11165 H 17.128094679524196 39.391988396125754 16.11938033507613 H 0.0 **** 0.06
11166 C 4.279275061562004 89.98387730162426 98.4799067881508 C 0.0 **** -0.24
11167 H 3.739748147558359 90.52587945995117 97.7039621747545 H 0.0 **** 0.06
11168 H 3.7305646308669793 90.05351603065077 99.41952058001246 H 0.0 **** 0.06
11169 H 5.270497434641982 90.41945592144879 98.6049315606617 H 0.0 **** 0.06
11170 H 4.375615764817297 88.93674654688243 98.19194600527058 H 0.0 **** 0.06
11171 C 16.511019673608445 11.701912550455546 9.898991951570537 C 0.0 **** -0.24
11172 H 17.27529471844341 12.138123668544694 9.256095981420614 H 0.0 **** 0.06
11173 H 15.569743406777658 11.637634788626087 9.35106385044186 H 0.0 **** 0.06
11174 H 16.376785151136353 12.329904997017252 10.779966600636286 H 0.0 **** 0.06
11175 H 16.82130456400748 10.703844820511051 10.207559288221518 H 0.0 **** 0.06
11176 C 109.06054331587674 82.72238526603894 27.787199787080155 C 0.0 **** -0.24
11177 H 108.07029404932058 82.71229986879996 27.33209826866735 H 0.0 **** 0.06
11178 H 109.80728479182076 82.45859466359212 27.03825291358534 H 0.0 **** 0.06
11179 H 109.09207010467665 81.9994311835859 28.602404174751257 H 0.0 **** 0.06
11180 H 109.27023008057398 83.71859713328075 28.176639264294295 H 0.0 **** 0.06
11181 C 51.44646917491221 43.00343316382538 99.41832190027942 C 0.0 **** -0.24
11182 H 51.90471923791753 42.1044385410047 99.83004542338593 H 0.0 **** 0.06
11183 H 51.92194125561477 43.2502702546397 98.46797112991109 H 0.0 **** 0.06
11184 H 51.57732454423345 43.82944429051861 100.1161013301481 H 0.0 **** 0.06
11185 H 50.38227488311975 42.82794785212269 99.25738339666844 H 0.0 **** 0.06
11186 C 22.798565179664394 30.692487458091136 90.0311523369713 C 0.0 **** -0.24
11187 H 23.041162321343137 30.179502556474688 89.10012286076878 H 0.0 **** 0.06
11188 H 22.6872327210542 29.95975018988122 90.83080597668629 H 0.0 **** 0.06
11189 H 21.867206639669945 31.24421020281028 89.91021048388993 H 0.0 **** 0.06
11190 H 23.60211447301954 31.385552181459445 90.28238053325077 H 0.0 **** 0.06
11191 C 7.182371184623101 23.870021364317772 84.09225970995783 C 0.0 **** -0.24
11192 H 6.5699220131769565 23.53701113470456 84.93039570680594 H 0.0 **** 0.06
11193 H 8.191452736428943 23.472117269240005 84.19973289627188 H 0.0 **** 0.06
11194 H 7.2195501291900825 24.959046899753414 84.08026759261674 H 0.0 **** 0.06
11195 H 6.746609850135513 23.51089676635537 83.15905587584672 H 0.0 **** 0.06
11196 C 71.88113597409244 15.318558488544209 103.118789442991 C 0.0 **** -0.24
11197 H 72.3260851170013 14.849078263353249 102.24139197550149 H 0.0 **** 0.06
11198 H 72.58358916014839 15.273695999381612 103.95137555740453 H 0.0 **** 0.06
11199 H 70.96498169169081 14.79244303754152 103.3870460265034 H 0.0 **** 0.06
11200 H 71.64875971055767 16.360208115057745 102.89420064450464 H 0.0 **** 0.06
11201 C 16.80493219724704 64.46314858233728 12.382093207437322 C 0.0 **** -0.24
11202 H 17.60008460278162 63.869743483746774 12.831649312988873 H 0.0 **** 0.06
11203 H 17.112957917741973 65.50773288261291 12.332731830543622 H 0.0 **** 0.06
11204 H 15.90155798919091 64.37856447582168 12.987651952191783 H 0.0 **** 0.06
11205 H 16.602588537706858 64.09531105064652 11.376420148468355 H 0.0 **** 0.06
11206 C 85.24175797698291 72.24595732219657 25.009195659720802 C 0.0 **** -0.24
11207 H 85.92707695177194 73.09241027831789 25.053467860520783 H 0.0 **** 0.06
11208 H 85.64227749174731 71.48820139657624 24.335300386288907 H 0.0 **** 0.06
11209 H 84.27254264689259 72.58286350181541 24.641934737685773 H 0.0 **** 0.06
11210 H 85.12414141696638 71.82043490026354 26.005997929934125 H 0.0 **** 0.06
11211 C 107.92038299195667 13.188586177053395 89.2708511270699 C 0.0 **** -0.24
11212 H 107.57842900556335 12.470380588297246 88.52571695866183 H 0.0 **** 0.06
11213 H 108.96564256132541 12.991609427856588 89.51220232529431 H 0.0 **** 0.06
11214 H 107.31506947561422 13.092282700796062 90.17230214001603 H 0.0 **** 0.06
11215 H 107.82292106134094 14.198462936310278 88.87282246152193 H 0.0 **** 0.06
11216 C 34.84122633902909 41.34156849512573 4.9216163605628935 C 0.0 **** -0.24
11217 H 35.115020682376304 40.28714631738171 4.934114410435669 H 0.0 **** 0.06
11218 H 35.47111012020661 41.87160485559468 4.2072329850452235 H 0.0 **** 0.06
11219 H 34.982656621788664 41.76549323754776 5.916166538774718 H 0.0 **** 0.06
11220 H 33.79611793174487 41.4420295699785 4.628951507995964 H 0.0 **** 0.06
11221 C 65.45623897657214 91.48627893113587 77.36001302874064 C 0.0 **** -0.24
11222 H 64.37357759827707 91.57819474670492 77.2720098074372 H 0.0 **** 0.06
11223 H 65.92901657372977 92.38909760063035 76.97277854169491 H 0.0 **** 0.06
11224 H 65.79436863773446 90.62302511387173 76.78571870188088 H 0.0 **** 0.06
11225 H 65.72550090103093 91.35496009410889 78.40736255957128 H 0.0 **** 0.06
11226 C 81.50540334293406 16.669568961555186 104.2568973917789 C 0.0 **** -0.24
11227 H 80.89022328850285 17.535576910014026 104.50176159762917 H 0.0 **** 0.06
11228 H 81.88417861113075 16.770097522860965 103.23965845776253 H 0.0 **** 0.06
11229 H 80.90433109468759 15.763756257769021 104.33335787903857 H 0.0 **** 0.06
11230 H 82.34290812913187 16.61099199789866 104.95218669326925 H 0.0 **** 0.06
11231 C 7.661522929163283 68.81774624530891 64.85175576559641 C 0.0 **** -0.24
11232 H 6.835162301084864 68.14434690984481 64.62443182332767 H 0.0 **** 0.06
11233 H 8.027951029305115 69.26694689740403 63.92880726084765 H 0.0 **** 0.06
11234 H 8.465219214066167 68.25646511707978 65.32852564417446 H 0.0 **** 0.06
11235 H 7.315537551363235 69.60041144565912 65.52632747774882 H 0.0 **** 0.06
11236 C 37.495004445197026 1.9171390606509249 79.28577512979045 C 0.0 **** -0.24
11237 H 36.608864260591844 2.2299061214137623 78.73243334694256 H 0.0 **** 0.06
11238 H 37.67185759357136 2.6096031458623656 80.10964420849666 H 0.0 **** 0.06
11239 H 38.35786331021751 1.9174529400352185 78.61960306283694 H 0.0 **** 0.06
11240 H 37.34070324729191 0.9135920523412437 79.68072982846024 H 0.0 **** 0.06
11241 C 73.60520161333176 35.15931798376448 95.9949584284562 C 0.0 **** -0.24
11242 H 74.51916307970549 34.56987827028216 96.06298017646553 H 0.0 **** 0.06
11243 H 73.70968901482405 36.06327351962008 96.5962940935407 H 0.0 **** 0.06
11244 H 72.76552538963529 34.570733200010864 96.36652483737922 H 0.0 **** 0.06
11245 H 73.42538344073972 35.432599361109126 94.95584756895775 H 0.0 **** 0.06
11246 C 38.726227723673226 26.03070704915139 42.30693549433329 C 0.0 **** -0.24
11247 H 39.381115842711175 25.316217392878087 42.80515210267316 H 0.0 **** 0.06
11248 H 38.31724227018964 26.72263594133659 43.04321739751697 H 0.0 **** 0.06
11249 H 37.911576094717724 25.497025430532744 41.816445501573014 H 0.0 **** 0.06
11250 H 39.295576850831374 26.58647106215558 41.56173909239112 H 0.0 **** 0.06
11251 C 5.226751116699461 93.1350869991386 12.617689660975657 C 0.0 **** -0.24
11252 H 5.115530965388359 94.09843620784166 12.11740450004341 H 0.0 **** 0.06
11253 H 6.273819278004112 92.8320726410999 12.59086922626425 H 0.0 **** 0.06
11254 H 4.61731218867186 92.38898163869115 12.107428224396976 H 0.0 **** 0.06
11255 H 4.9003663113608695 93.22431271983749 13.653620854746407 H 0.0 **** 0.06
11256 C 91.9475310013641 52.962917288837254 110.27788129418539 C 0.0 **** -0.24
11257 H 90.87113903752845 53.04235182738164 110.12590688120562 H 0.0 **** 0.06
11258 H 92.15761292855757 52.877913051011696 111.34377836461275 H 0.0 **** 0.06
11259 H 92.43676089497615 53.85182470395877 109.87985184598384 H 0.0 **** 0.06
11260 H 92.32285377469333 52.07876332789762 109.76149250771775 H 0.0 **** 0.06
11261 C 93.3302742639943 103.74876000660674 81.2925922261905 C 0.0 **** -0.24
11262 H 93.74755503857655 104.50535737216163 80.62686330492824 H 0.0 **** 0.06
11263 H 92.48964353147444 103.25771156404167 80.80238805475804 H 0.0 **** 0.06
11264 H 92.98887802780551 104.22362793326666 82.21189073406532 H 0.0 **** 0.06
11265 H 94.09743023116664 103.01101153470563 81.52819073285553 H 0.0 **** 0.06
11266 C 102.2628733210905 31.313416692427637 95.04585346299174 C 0.0 **** -0.24
11267 H 102.58828791304296 30.40197595524174 94.54380278183865 H 0.0 **** 0.06
11268 H 101.42152958276995 31.08510073545861 95.70146413675484 H 0.0 **** 0.06
11269 H 101.95547677407632 32.04758828983003 94.30186616088506 H 0.0 **** 0.06
11270 H 103.08532734337226 31.716761859018675 95.63580832775325 H 0.0 **** 0.06
11271 C 71.32498199098758 42.95323213158636 77.70056726830381 C 0.0 **** -0.24
11272 H 71.3461000420319 42.69265923014856 78.75899607958178 H 0.0 **** 0.06
11273 H 71.7268320394018 42.12603168707179 77.11501990004905 H 0.0 **** 0.06
11274 H 71.93094899583772 43.844025848759166 77.53437374951844 H 0.0 **** 0.06
11275 H 70.2975499370799 43.14955210335212 77.39569758326417 H 0.0 **** 0.06
11276 C 21.517014832290016 42.58960698275047 104.8440636860752 C 0.0 **** -0.24
11277 H 21.735041851587567 42.15134731163465 103.87066892486762 H 0.0 **** 0.06
11278 H 22.227354928888985 43.39070714492061 105.04903739658367 H 0.0 **** 0.06
11279 H 21.60265699904872 41.822732976369196 105.61493299288948 H 0.0 **** 0.06
11280 H 20.504479332280397 42.992420707283856 104.84277315467736 H 0.0 **** 0.06
11281 C 2.5999746530456083 89.25860850730382 25.1863756527964 C 0.0 **** -0.24
11282 H 2.9769295695217526 88.33161062889553 24.755047907296102 H 0.0 **** 0.06
11283 H 3.350924639271062 90.04082731239822 25.0794291846599 H 0.0 **** 0.06
11284 H 2.3822990392594505 89.104827807119 26.2432155399665 H 0.0 **** 0.06
11285 H 1.6880350705685778 89.55614280097643 24.66765672075536 H 0.0 **** 0.06
11286 C 101.09716922070093 43.47487518092652 83.1220811440086 C 0.0 **** -0.24
11287 H 100.16973368743334 44.01271723247919 82.92498979792308 H 0.0 **** 0.06
11288 H 101.86302526881126 44.17825887786546 83.44867663158556 H 0.0 **** 0.06
11289 H 101.42627405918111 42.97489039511902 82.21147534530792 H 0.0 **** 0.06
11290 H 100.92737438181845 42.73274160706882 83.90295262247625 H 0.0 **** 0.06
11291 C 104.60416921177642 95.65220272442372 29.407079784707662 C 0.0 **** -0.24
11292 H 105.10287408716964 96.54079456781106 29.020832863619944 H 0.0 **** 0.06
11293 H 103.60898645451695 95.91960869306493 29.76171345077904 H 0.0 **** 0.06
11294 H 105.18605436582543 95.23843440410886 30.230515977302048 H 0.0 **** 0.06
11295 H 104.52000726358075 94.90995763089853 28.612717294616033 H 0.0 **** 0.06
11296 C 54.46825078751817 57.16001438581873 102.55566958199395 C 0.0 **** -0.24
11297 H 55.04727504389177 58.01218141625202 102.9116133937558 H 0.0 **** 0.06
11298 H 54.88186220948154 56.80907284976843 101.61063237488203 H 0.0 **** 0.06
11299 H 53.43116348813231 57.460765437664804 102.40935336546998 H 0.0 **** 0.06
11300 H 54.51350471629837 56.35801137902365 103.29291107903143 H 0.0 **** 0.06
11301 C 4.964476054654554 47.24027273638355 12.618672773872618 C 0.0 **** -0.24
11302 H 4.81571112201145 46.234835712457226 13.013462790589244 H 0.0 **** 0.06
11303 H 4.598241930882125 47.284995019900606 11.593360050801778 H 0.0 **** 0.06
11304 H 6.027147491231915 47.4835406972813 12.636917857267946 H 0.0 **** 0.06
11305 H 4.416970739648264 47.95538919827616 13.232832459934343 H 0.0 **** 0.06
11306 C 31.44375832610234 101.41916944851025 53.44227889622937 C 0.0 **** -0.24
11307 H 31.974619301535228 102.34889626261803 53.65025840474763 H 0.0 **** 0.06
11308 H 30.920797822176667 101.09116715331628 54.34137210874866 H 0.0 **** 0.06
11309 H 32.15737128730103 100.6549517946425 53.13621747633056 H 0.0 **** 0.06
11310 H 30.721942569763314 101.58484104876945 52.64261167918423 H 0.0 **** 0.06
11311 C 17.854865515151474 64.18937126826367 80.93693264811212 C 0.0 **** -0.24
11312 H 18.162065030330638 65.22906551191883 81.04872735216537 H 0.0 **** 0.06
11313 H 18.543711401811805 63.6784096692876 80.26425195124014 H 0.0 **** 0.06
11314 H 16.846750457631742 64.15036836672829 80.52505826939979 H 0.0 **** 0.06
11315 H 17.869240223765047 63.70055441279439 81.9113823448242 H 0.0 **** 0.06
11316 C 73.70294489239075 79.3564055121197 74.30997623082513 C 0.0 **** -0.24
11317 H 74.40732702349794 80.1872571318479 74.36151439678196 H 0.0 **** 0.06
11318 H 74.23813810465356 78.44219034156265 74.05499478890127 H 0.0 **** 0.06
11319 H 72.95220441676241 79.56370484260648 73.54629531408258 H 0.0 **** 0.06
11320 H 73.21378507602279 79.23483025903099 75.27653242320801 H 0.0 **** 0.06
11321 C 75.4121881621191 99.86652461871961 29.258804333904436 C 0.0 **** -0.24
11322 H 75.17475394913805 100.17549276126391 30.27643166153962 H 0.0 **** 0.06
11323 H 76.20173941984172 100.50495528983993 28.860508089986524 H 0.0 **** 0.06
11324 H 74.52293062068838 99.95721091915829 28.634327916808786 H 0.0 **** 0.06
11325 H 75.74975104183954 98.83029925861302 29.262412393946022 H 0.0 **** 0.06
11326 C 61.10112667354812 86.2159340955871 53.647744561616946 C 0.0 **** -0.24
11327 H 60.111200415083786 85.76448329055415 53.70937148700477 H 0.0 **** 0.06
11328 H 61.03685554171123 87.27134194756866 53.912971318196696 H 0.0 **** 0.06
11329 H 61.48014444089149 86.11938425370903 52.62991528585252 H 0.0 **** 0.06
11330 H 61.775690498985625 85.70734591827613 54.33666433449582 H 0.0 **** 0.06
11331 C 19.773958439425485 96.45057502692495 4.777882439054869 C 0.0 **** -0.24
11332 H 20.831381996399728 96.71121630333691 4.819873686449402 H 0.0 **** 0.06
11333 H 19.229415771878934 97.01689411803689 5.5338300113926255 H 0.0 **** 0.06
11334 H 19.655804546706975 95.3843085429927 4.966848305689419 H 0.0 **** 0.06
11335 H 19.38011695537017 96.69026878996493 3.789945426197166 H 0.0 **** 0.06
11336 C 38.90457207082059 63.00460073658979 22.38781803579832 C 0.0 **** -0.24
11337 H 39.11977779658821 63.56808562264709 23.294745222643826 H 0.0 **** 0.06
11338 H 37.82550881198256 62.89949882993912 22.273494704418653 H 0.0 **** 0.06
11339 H 39.360239613471094 62.01655289583181 22.45690721001489 H 0.0 **** 0.06
11340 H 39.31207069911977 63.53358386233211 21.525885620956842 H 0.0 **** 0.06
11341 C 42.1038830498029 103.20317782016762 108.22156024694112 C 0.0 **** -0.24
11342 H 42.96665208115422 102.54483287534045 108.32652357054769 H 0.0 **** 0.06
11343 H 41.95689194546969 103.44467467623885 107.16873232692032 H 0.0 **** 0.06
11344 H 42.27761585174932 104.11980094834004 108.78514846691911 H 0.0 **** 0.06
11345 H 41.2163535838356 102.70235444543982 108.60828123849322 H 0.0 **** 0.06
11346 C 89.21028051772308 34.21447304230017 99.76016811055096 C 0.0 **** -0.24
11347 H 90.23400832038588 33.84511637134531 99.69009079347924 H 0.0 **** 0.06
11348 H 89.19604033347134 35.131843912933846 100.35035514422064 H 0.0 **** 0.06
11349 H 88.58477894568074 33.462725692405485 100.24034451451347 H 0.0 **** 0.06
11350 H 88.82960877288541 34.41962563104323 98.75984658892357 H 0.0 **** 0.06
11351 C 66.10364025703481 84.52392894717444 85.92843980991432 C 0.0 **** -0.24
11352 H 66.98951631561346 83.92546673378259 86.14111637865491 H 0.0 **** 0.06
11353 H 65.21687273826336 83.99959223475233 86.28306504626909 H 0.0 **** 0.06
11354 H 66.02543742165763 84.68568592825382 84.85361345242774 H 0.0 **** 0.06
11355 H 66.18551867937889 85.48546803633614 86.4360078104628 H 0.0 **** 0.06
11356 C 102.67751946941952 1.0806023550291943 12.296000653764168 C 0.0 **** -0.24
11357 H 102.66720730474664 2.1144641671127813 12.643143584059487 H 0.0 **** 0.06
11358 H 101.66034526581201 0.6873686379779613 12.297294547548972 H 0.0 **** 0.06
11359 H 103.30039133895109 0.4809841243555253 12.959994146403801 H 0.0 **** 0.06
11360 H 103.08233912681217 1.0418117493870165 11.28458675346701 H 0.0 **** 0.06
11361 C 10.2620178720598 33.0503882242765 42.40074783888326 C 0.0 **** -0.24
11362 H 10.94669483467925 32.293978503483004 42.78460918395825 H 0.0 **** 0.06
11363 H 9.677559891214628 33.46121845186937 43.22403219309206 H 0.0 **** 0.06
11364 H 9.592090029712836 32.59660173576262 41.6700301988929 H 0.0 **** 0.06
11365 H 10.832222250762072 33.84774395080683 41.92516452053519 H 0.0 **** 0.06
11366 C 74.90481439955062 37.7963600690282 43.052243065206994 C 0.0 **** -0.24
11367 H 74.69002500807429 36.74492919223998 43.24091027725194 H 0.0 **** 0.06
11368 H 75.31485313858664 37.90919007737402 42.04882025589586 H 0.0 **** 0.06
11369 H 75.62999114861202 38.156086476665266 43.7835244230352 H 0.0 **** 0.06
11370 H 73.9857803575452 38.37630894350258 43.13709863393325 H 0.0 **** 0.06
11371 C 97.61663890260914 12.834741923659948 35.942681953841536 C 0.0 **** -0.24
11372 H 98.22564883714143 12.03211086113447 35.5254529237443 H 0.0 **** 0.06
11373 H 97.06476038200562 12.460975788365474 36.8055143471705 H 0.0 **** 0.06
11374 H 96.91578979234772 13.188963584055927 35.18705026540556 H 0.0 **** 0.06
11375 H 98.2622516202531 13.656175432444371 36.25363685290385 H 0.0 **** 0.06
11376 C 75.78635525591945 18.221543566958943 87.73995422144529 C 0.0 **** -0.24
11377 H 75.53179996962125 19.27673440535357 87.83019581634251 H 0.0 **** 0.06
11378 H 76.52024126650099 17.958566597429087 88.50203701847529 H 0.0 **** 0.06
11379 H 76.20358797330454 18.03161553268639 86.75112211982645 H 0.0 **** 0.06
11380 H 74.88808329079417 17.61809151426717 87.87731112742043 H 0.0 **** 0.06
11381 C 78.32800501965231 10.165880072312547 5.798057950224319 C 0.0 **** -0.24
11382 H 78.69282843801592 9.168553122442447 6.040717149029874 H 0.0 **** 0.06
11383 H 77.94744342823944 10.174891378855321 4.776695917159657 H 0.0 **** 0.06
11384 H 79.1443666503849 10.882728784100394 5.887647884017241 H 0.0 **** 0.06
11385 H 77.5285295636253 10.438636517446298 6.487031574996024 H 0.0 **** 0.06
11386 C 73.91564812542615 105.85115163948413 21.534552951290216 C 0.0 **** -0.24
11387 H 72.8300811471425 105.77349852384336 21.598169637029223 H 0.0 **** 0.06
11388 H 74.37049307557524 104.98183189317574 22.00885238682193 H 0.0 **** 0.06
11389 H 74.24487732361 106.75748682931385 22.043007869208395 H 0.0 **** 0.06
11390 H 74.21531923937674 105.89310708256822 20.486465744067814 H 0.0 **** 0.06
11391 C 75.4399280573811 90.57495403034288 108.91241504165336 C 0.0 **** -0.24
11392 H 76.28807470910978 90.22677242556036 108.32400150149658 H 0.0 **** 0.06
11393 H 75.69737056047639 91.51518911168026 109.40051964565298 H 0.0 **** 0.06
11394 H 75.19253116874478 89.82842779745758 109.66787129525925 H 0.0 **** 0.06
11395 H 74.58224234130766 90.72850204528302 108.25821025319475 H 0.0 **** 0.06
11396 C 24.12328028921189 48.149274102988784 20.475081027900913 C 0.0 **** -0.24
11397 H 23.47965192742734 49.029349620851235 20.47218593668738 H 0.0 **** 0.06
11398 H 23.791784004609354 47.4601810031084 21.252369060525766 H 0.0 **** 0.06
11399 H 25.15162466960922 48.45227481157434 20.672585833167545 H 0.0 **** 0.06
11400 H 24.06917306931925 47.657394748842535 19.50407030550265 H 0.0 **** 0.06
11401 C 87.02958723613321 99.7552572372716 31.598886736704685 C 0.0 **** -0.24
11402 H 86.64631543226098 99.1174986720761 32.39522614483113 H 0.0 **** 0.06
11403 H 87.03017213381942 99.20250848679346 30.65938409527061 H 0.0 **** 0.06
11404 H 88.04580916852913 100.06492391964926 31.83955285854131 H 0.0 **** 0.06
11405 H 86.3942465343949 100.63566009629498 31.502628091302654 H 0.0 **** 0.06
11406 C 54.95361515116099 92.26202721301345 6.800220489673196 C 0.0 **** -0.24
11407 H 54.68031263315879 91.25304087242307 7.109983399034046 H 0.0 **** 0.06
11408 H 55.47553215461551 92.21851442399529 5.84445587738592 H 0.0 **** 0.06
11409 H 55.60416200562361 92.70859896018203 7.550862279023063 H 0.0 **** 0.06
11410 H 54.05183464066732 92.86575502538858 6.694062990684866 H 0.0 **** 0.06
11411 C 77.26627828207492 13.751734565188926 39.72318311118403 C 0.0 **** -0.24
11412 H 76.7610622137571 13.784128421388516 40.687888784547305 H 0.0 **** 0.06
11413 H 76.68496660697039 14.310902146380329 38.989531885341414 H 0.0 **** 0.06
11414 H 77.36253291741565 12.716551775039719 39.397656915236404 H 0.0 **** 0.06
11415 H 78.25721012235812 14.19606770405153 39.817410968845536 H 0.0 **** 0.06
11416 C 83.57428386796465 79.72439522708714 70.77918265705043 C 0.0 **** -0.24
11417 H 82.88376732756724 80.45673902024933 71.19690168231584 H 0.0 **** 0.06
11418 H 83.11648777176235 78.73478172813026 70.81014517746598 H 0.0 **** 0.06
11419 H 84.4940741707618 79.71769638234304 71.36299221103097 H 0.0 **** 0.06
11420 H 83.80111916087817 79.9873597501466 69.74630942786874 H 0.0 **** 0.06
11421 C 5.5465075696166934 67.51140463852168 49.712911792404086 C 0.0 **** -0.24
11422 H 5.035025768410037 67.0592281843595 50.56204223156063 H 0.0 **** 0.06
11423 H 4.8112432227996464 67.8632183812796 48.99015312221707 H 0.0 **** 0.06
11424 H 6.193926333403141 66.77026852185004 49.242494940816854 H 0.0 **** 0.06
11425 H 6.149457922277264 68.3520800638366 50.05740050953372 H 0.0 **** 0.06
11426 C 34.77724734158812 93.63376081095306 68.5176315706504 C 0.0 **** -0.24
11427 H 34.67548368941303 94.13277107668185 67.55408674571977 H 0.0 **** 0.06
11428 H 34.707381740734434 92.55515651560101 68.3767653074319 H 0.0 **** 0.06
11429 H 33.98256873170155 93.96643671524753 69.18493835951492 H 0.0 **** 0.06
11430 H 35.74548348239574 93.88117287257424 68.95454100480625 H 0.0 **** 0.06
11431 C 79.08707814358746 54.59485137460416 20.624151296115773 C 0.0 **** -0.24
11432 H 79.46430165015214 55.58574833200157 20.87720145525349 H 0.0 **** 0.06
11433 H 79.92136909248119 53.89636946261487 20.55019571742871 H 0.0 **** 0.06
11434 H 78.56326774720564 54.63899486667705 19.66958190435568 H 0.0 **** 0.06
11435 H 78.40027279180107 54.25893283101277 21.40096135416633 H 0.0 **** 0.06
11436 C 89.05816164023759 30.672260211017658 4.270972355731601 C 0.0 **** -0.24
11437 H 89.95491674260417 30.220300353461255 3.8488453236393525 H 0.0 **** 0.06
11438 H 88.52933776849875 31.223401023868973 3.493187127114197 H 0.0 **** 0.06
11439 H 89.33891701863351 31.355686239693227 5.072933738583004 H 0.0 **** 0.06
11440 H 88.4105720182276 29.891693993456443 4.668128127547561 H 0.0 **** 0.06
11441 C 105.4916264000684 55.627477677317344 70.16697429427444 C 0.0 **** -0.24
11442 H 105.76865098544152 55.03230287710639 69.29665591314733 H 0.0 **** 0.06
11443 H 105.3975979916588 56.67386407301119 69.87658851559462 H 0.0 **** 0.06
11444 H 106.26145322291792 55.53033244352996 70.9327276589843 H 0.0 **** 0.06
11445 H 104.54030119603567 55.271474178291285 70.56199148537223 H 0.0 **** 0.06
11446 C 10.534690092049075 67.98437191205736 70.84035427246332 C 0.0 **** -0.24
11447 H 11.245227267442544 68.34956582064613 71.58087975355309 H 0.0 **** 0.06
11448 H 11.012903327768072 67.95499133176169 69.86102458263574 H 0.0 **** 0.06
11449 H 9.672680162535016 68.65094383818298 70.80454214295173 H 0.0 **** 0.06
11450 H 10.207369886202954 66.98165896584045 71.1142245623499 H 0.0 **** 0.06
11451 C 67.62140104591549 79.9085839848913 38.48947164426914 C 0.0 **** -0.24
11452 H 68.09126664621431 80.83190050183842 38.14920453220635 H 0.0 **** 0.06
11453 H 68.39335344289734 79.18076435956647 38.74170542362932 H 0.0 **** 0.06
11454 H 66.99100815691298 79.50934310712671 37.69499052235348 H 0.0 **** 0.06
11455 H 67.01200169594802 80.11341183405756 39.36920721461147 H 0.0 **** 0.06
11456 C 2.915675519693181 107.3329275624543 85.9062167417716 C 0.0 **** -0.24
11457 H 2.0630401184341878 107.25228754155735 86.58077127033792 H 0.0 **** 0.06
11458 H 3.2942969538251674 108.35528717412417 85.91990611430181 H 0.0 **** 0.06
11459 H 2.6041431918708895 107.0741442590004 84.89422635420229 H 0.0 **** 0.06
11460 H 3.7005862896844235 106.649317293672 86.23103185239263 H 0.0 **** 0.06
11461 C 9.413769140128267 88.72802514054445 51.689398863312306 C 0.0 **** -0.24
11462 H 8.641120460793474 89.4797460701268 51.53031914227989 H 0.0 **** 0.06
11463 H 9.564120932033461 88.58218635025764 52.75940781302029 H 0.0 **** 0.06
11464 H 10.346120292120503 89.06199980574951 51.23422968724114 H 0.0 **** 0.06
11465 H 9.103857595975086 87.78668232953515 51.234517199216754 H 0.0 **** 0.06
11466 C 102.63007912841806 4.567452562303899 6.467043909610396 C 0.0 **** -0.24
11467 H 102.71467193143656 5.4981378033189685 7.027862738518337 H 0.0 **** 0.06
11468 H 101.98307348081642 3.875069593241321 7.006260268043263 H 0.0 **** 0.06
11469 H 103.61887949730084 4.123140472217983 6.348168396491928 H 0.0 **** 0.06
11470 H 102.20397946659835 4.773478596833286 5.484499687527915 H 0.0 **** 0.06
11471 C 73.2681158888056 108.02582495581629 52.784518652794105 C 0.0 **** -0.24
11472 H 72.43967641984145 107.40914596113302 53.13379192748232 H 0.0 **** 0.06
11473 H 74.20946652767466 107.60162248630976 53.134096942972405 H 0.0 **** 0.06
11474 H 73.1564833854953 109.03746825871383 53.17589288766129 H 0.0 **** 0.06
11475 H 73.26528429074568 108.05593572025631 51.69520234122406 H 0.0 **** 0.06
11476 C 84.18861315612894 69.40074979790245 104.30682835408197 C 0.0 **** -0.24
11477 H 83.20154062922495 69.58433161438421 103.88294835423653 H 0.0 **** 0.06
11478 H 84.08161379167245 68.9106956552211 105.27537359537433 H 0.0 **** 0.06
11479 H 84.71182572965347 70.34802206748878 104.43325829351448 H 0.0 **** 0.06
11480 H 84.7574136361396 68.75742123576936 103.63512668569524 H 0.0 **** 0.06
11481 C 99.66320690112059 3.6972217094695594 78.89857364580241 C 0.0 **** -0.24
11482 H 99.81853582722391 4.43662570305122 79.68454210278551 H 0.0 **** 0.06
11483 H 98.60975538904012 3.418044714045493 78.86627997932675 H 0.0 **** 0.06
11484 H 100.26707377221561 2.8143862498370424 79.10668911363283 H 0.0 **** 0.06
11485 H 99.95715807014008 4.120464926332119 77.93800994279209 H 0.0 **** 0.06
11486 C 38.36497997393474 76.53886309376945 92.2627854026067 C 0.0 **** -0.24
11487 H 37.55959515250419 77.21739830146717 92.54023609929804 H 0.0 **** 0.06
11488 H 38.52862781934749 75.82058678838855 93.06693671104566 H 0.0 **** 0.06
11489 H 39.278449099138186 77.1091751632091 92.09328304825051 H 0.0 **** 0.06
11490 H 38.093606252076654 76.00659791577435 91.35072243840443 H 0.0 **** 0.06
11491 C 98.3521364115631 87.11792915883603 13.831364548890832 C 0.0 **** -0.24
11492 H 98.65579175324035 88.1521681784144 13.668718226749746 H 0.0 **** 0.06
11493 H 99.13788491982382 86.58931965659622 14.372520798915417 H 0.0 **** 0.06
11494 H 98.1846069452846 86.63262838376482 12.869090762283236 H 0.0 **** 0.06
11495 H 97.43097920177041 87.09711898763044 14.41400859139037 H 0.0 **** 0.06
11496 C 31.797510636204137 103.12905068243637 13.120429047386494 C 0.0 **** -0.24
11497 H 31.936293478767595 102.5469466263907 14.03165785481383 H 0.0 **** 0.06
11498 H 32.75743180361562 103.5330873032566 12.798133349903154 H 0.0 **** 0.06
11499 H 31.105315981623235 103.94835890855438 13.315852554328757 H 0.0 **** 0.06
11500 H 31.39067998692444 102.48770623940291 12.339053450287153 H 0.0 **** 0.06
11501 C 54.86591626322864 17.46626296140701 26.18917247071272 C 0.0 **** -0.24
11502 H 55.23017340139264 18.068652585856825 25.356523536552857 H 0.0 **** 0.06
11503 H 55.51652445037534 16.601657627599167 26.323285749000206 H 0.0 **** 0.06
11504 H 53.85158766181032 17.128568911730582 25.976266493135142 H 0.0 **** 0.06
11505 H 54.86647456640631 18.065884823462937 27.098441931814477 H 0.0 **** 0.06
11506 C 64.48459906079995 17.256798452786114 74.41520008418286 C 0.0 **** -0.24
11507 H 64.10872924877384 16.83445282954379 73.48308109462738 H 0.0 **** 0.06
11508 H 64.60417017348112 16.46239809579129 75.15170503245656 H 0.0 **** 0.06
11509 H 63.7764834241828 17.99637263089344 74.79057199620087 H 0.0 **** 0.06
11510 H 65.44746832553659 17.734330981511896 74.23474738824325 H 0.0 **** 0.06
11511 C 62.71836386952731 31.294854068621532 42.67205231280738 C 0.0 **** -0.24
11512 H 63.10916819266566 31.642457521603376 41.71597201842249 H 0.0 **** 0.06
11513 H 61.660574638697966 31.055614854572013 42.56633933118336 H 0.0 **** 0.06
11514 H 62.84240784246873 32.076268891278005 43.42097195994296 H 0.0 **** 0.06
11515 H 63.26390134736937 30.403314787792453 42.9834561813163 H 0.0 **** 0.06
11516 C 77.93217540853368 62.51180006554394 46.62239082708237 C 0.0 **** -0.24
11517 H 77.88642360797928 62.52981507988477 47.71217753182856 H 0.0 **** 0.06
11518 H 78.5175611821976 63.360924842665895 46.270211438973064 H 0.0 **** 0.06
11519 H 76.92212885742038 62.571956799604365 46.2159662848556 H 0.0 **** 0.06
11520 H 78.40116786770318 61.584173187729576 46.29401423025689 H 0.0 **** 0.06
11521 C 100.04601622369997 90.99033101489692 15.019029008842324 C 0.0 **** -0.24
11522 H 99.68949365720188 90.42669989532496 14.156849007662444 H 0.0 **** 0.06
11523 H 99.25087671642243 91.64363728242498 15.378850961950008 H 0.0 **** 0.06
11524 H 100.90759303970289 91.59212440705875 14.73009851991705 H 0.0 **** 0.06
11525 H 100.334468068086 90.29836154627192 15.810602470688252 H 0.0 **** 0.06
11526 C 77.71601067572573 90.02291524168871 101.02128160333085 C 0.0 **** -0.24
11527 H 77.6153530196107 88.99046238057656 101.3587589390344 H 0.0 **** 0.06
11528 H 76.91598443823483 90.25445016962806 100.31821878930036 H 0.0 **** 0.06
11529 H 78.68086125314511 90.1504420642396 100.529634325799 H 0.0 **** 0.06
11530 H 77.65280068509162 90.69283056490983 101.87844883274433 H 0.0 **** 0.06
11531 C 42.06262962136776 90.17710412090811 74.94345714109807 C 0.0 **** -0.24
11532 H 41.26909858605893 89.96399262693869 75.66055112428722 H 0.0 **** 0.06
11533 H 42.02778202555152 89.44455725798352 74.13664148366968 H 0.0 **** 0.06
11534 H 43.02911557298137 90.12079762913447 75.44489930788438 H 0.0 **** 0.06
11535 H 41.922079214464986 91.17714337442119 74.53381609942988 H 0.0 **** 0.06
11536 C 45.88036361501645 52.1515210837326 18.49940689311825 C 0.0 **** -0.24
11537 H 45.14644733182109 51.49302051314759 18.034799940684906 H 0.0 **** 0.06
11538 H 45.63397060825798 52.28425915389283 19.55358756990907 H 0.0 **** 0.06
11539 H 45.86835773517441 53.11967172882022 17.99914206319673 H 0.0 **** 0.06
11540 H 46.87316243071905 51.70945684926427 18.410911152481077 H 0.0 **** 0.06
11541 C 45.660896496808135 67.60606381466306 50.76098946364622 C 0.0 **** -0.24
11542 H 46.29348567560368 67.09370222707636 50.03501608425839 H 0.0 **** 0.06
11543 H 46.192892359395046 67.68943496557984 51.709803192212675 H 0.0 **** 0.06
11544 H 44.742327192944 67.0380989445147 50.90697593596167 H 0.0 **** 0.06
11545 H 45.418243241336086 68.60178396946702 50.391751828816815 H 0.0 **** 0.06
11546 C 102.71652327927416 36.0902380181805 33.32331289277241 C 0.0 **** -0.24
11547 H 101.94615313241678 35.77724026331134 32.617978209162345 H 0.0 **** 0.06
11548 H 102.40308644614646 35.83911670791856 34.33747918002399 H 0.0 **** 0.06
11549 H 102.86397495754778 37.167454445203546 33.24472208968919 H 0.0 **** 0.06
11550 H 103.64997111503473 35.576958725316985 33.09378902691475 H 0.0 **** 0.06
11551 C 42.02128274927904 66.59025610483457 80.48757225317212 C 0.0 **** -0.24
11552 H 43.03534432447697 66.71332862126758 80.10625736005402 H 0.0 **** 0.06
11553 H 41.3890275423184 66.1664907263708 79.70641025894177 H 0.0 **** 0.06
11554 H 41.62551315515981 67.56023002688903 80.78889891918394 H 0.0 **** 0.06
11555 H 42.03511159725886 65.92005592314456 81.3469512153378 H 0.0 **** 0.06
11556 C 57.621525732099805 99.5967565887128 43.774832188248276 C 0.0 **** -0.24
11557 H 56.60449497482501 99.50802228128981 44.15536252769608 H 0.0 **** 0.06
11558 H 58.11964496574592 100.43543856260817 44.26033755736037 H 0.0 **** 0.06
11559 H 57.59267090575468 99.76483920648585 42.69795503793178 H 0.0 **** 0.06
11560 H 58.168801073399756 98.67690372554114 43.98411240670086 H 0.0 **** 0.06
11561 C 45.02542539595129 67.16006410795468 35.019641891100875 C 0.0 **** -0.24
11562 H 43.94281434936238 67.03394733651737 34.988550821867534 H 0.0 **** 0.06
11563 H 45.31460923484646 67.9778332470458 34.35771123303461 H 0.0 **** 0.06
11564 H 45.507915524519916 66.23954011875713 34.69277259346839 H 0.0 **** 0.06
11565 H 45.3348077145789 67.39129095390015 36.03934307390887 H 0.0 **** 0.06
11566 C 70.17597315733497 45.05034193968348 107.28771014643107 C 0.0 **** -0.24
11567 H 71.20055961792933 44.67851937150144 107.29844776554958 H 0.0 **** 0.06
11568 H 69.78070398607305 45.05237957128199 108.30341278578717 H 0.0 **** 0.06
11569 H 69.56223422478669 44.4062777097308 106.65936515192693 H 0.0 **** 0.06
11570 H 70.1627625396702 46.065340347949416 106.8910548503098 H 0.0 **** 0.06
11571 C 40.03057242840171 26.362025624107616 109.71839789379109 C 0.0 **** -0.24
11572 H 40.643437683983706 25.493385905570335 109.4757087991982 H 0.0 **** 0.06
11573 H 39.09775995707997 26.03147771507639 110.17691701258957 H 0.0 **** 0.06
11574 H 39.810713310046964 26.916600997051034 108.80570194443615 H 0.0 **** 0.06
11575 H 40.569507195312724 27.005067795426783 110.41393135489051 H 0.0 **** 0.06
11576 C 2.968969853196942 2.431311079697707 53.157712370933744 C 0.0 **** -0.24
11577 H 3.570077353949575 2.6623465472271164 54.03807206982487 H 0.0 **** 0.06
11578 H 3.150425773295307 3.1804190558613072 52.387706744105266 H 0.0 **** 0.06
11579 H 1.9130712550818219 2.4345450524879197 53.42878512740233 H 0.0 **** 0.06
11580 H 3.2439415120098705 1.4462688941748638 52.779684266707655 H 0.0 **** 0.06
11581 C 84.17064967423185 66.06218276558589 43.51882391722921 C 0.0 **** -0.24
11582 H 85.25622254318405 66.08614245822113 43.618820208803896 H 0.0 **** 0.06
11583 H 83.72566845008645 65.75562357600516 44.46645623005452 H 0.0 **** 0.06
11584 H 83.89286318424543 65.35092849576695 42.74025483391085 H 0.0 **** 0.06
11585 H 83.80834954499842 67.0547688717455 43.25013599580126 H 0.0 **** 0.06
11586 C 2.266254537163718 85.08440494608169 26.773442059755837 C 0.0 **** -0.24
11587 H 1.2222264631359536 84.78275954445681 26.693741836401728 H 0.0 **** 0.06
11588 H 2.3265920274666883 86.06101874576018 27.253977819870727 H 0.0 **** 0.06
11589 H 2.7048372854495426 85.14035808145744 25.777223638426165 H 0.0 **** 0.06
11590 H 2.811051489181608 84.35232322713864 27.369571551066656 H 0.0 **** 0.06
11591 C 68.06173566721765 85.97886258042956 56.60539349508352 C 0.0 **** -0.24
11592 H 69.08508819126155 85.65675792855608 56.79798616399174 H 0.0 **** 0.06
11593 H 67.94450841870088 86.1989573040981 55.54330455205624 H 0.0 **** 0.06
11594 H 67.8478255117688 86.87442667656248 57.187705323419294 H 0.0 **** 0.06
11595 H 67.37192711812202 85.18573424188162 56.890571055663486 H 0.0 **** 0.06
11596 C 63.7716786462389 36.505574308883645 19.497463530245227 C 0.0 **** -0.24
11597 H 63.289933201309694 35.6420305939195 19.95585452129731 H 0.0 **** 0.06
11598 H 64.28899930663037 36.193904458172014 18.590108049867695 H 0.0 **** 0.06
11599 H 64.48902687102971 36.93483827399695 20.1964182274848 H 0.0 **** 0.06
11600 H 63.01702272958022 37.25153389646677 19.24847263553221 H 0.0 **** 0.06
11601 C 53.2552288915046 92.3657201750071 35.68139759547788 C 0.0 **** -0.24
11602 H 54.257415258277945 92.79310472773486 35.70123766230855 H 0.0 **** 0.06
11603 H 52.696031572270215 92.70937136914706 36.551848033916414 H 0.0 **** 0.06
11604 H 53.324133351474416 91.27726196386226 35.69985610604358 H 0.0 **** 0.06
11605 H 52.743465116061486 92.68173988843012 34.772773320123235 H 0.0 **** 0.06
11606 C 46.50150185783363 4.318337787913322 48.77504724987463 C 0.0 **** -0.24
11607 H 45.698178873634276 5.025150101921767 48.9835401312757 H 0.0 **** 0.06
11608 H 46.62181106650149 4.212964316469083 47.696610008835904 H 0.0 **** 0.06
11609 H 46.256572869062865 3.349701506336075 49.21088469800622 H 0.0 **** 0.06
11610 H 47.4302822241018 4.687834628951066 49.20904704023174 H 0.0 **** 0.06
11611 C 65.93613058600558 97.56591239069104 10.679550478316344 C 0.0 **** -0.24
11612 H 65.07214166965609 97.18450896699608 10.13653735918038 H 0.0 **** 0.06
11613 H 66.26852864010108 96.82108537036748 11.403502160766692 H 0.0 **** 0.06
11614 H 65.66083007404636 98.48229339382016 11.201772868641598 H 0.0 **** 0.06
11615 H 66.74266218773852 97.77608478858076 9.977718570610449 H 0.0 **** 0.06
11616 C 34.007713286459634 56.0964040179702 67.86926804193189 C 0.0 **** -0.24
11617 H 33.41436812517496 55.30626094758111 67.41003592386713 H 0.0 **** 0.06
11618 H 34.753908777265394 55.65289112479121 68.52946149723941 H 0.0 **** 0.06
11619 H 33.35528853966921 56.75246429444633 68.44638470880882 H 0.0 **** 0.06
11620 H 34.50831963555571 56.67500141661981 67.09215535718576 H 0.0 **** 0.06
11621 C 107.18593157053456 19.602263999661886 104.67512474255936 C 0.0 **** -0.24
11622 H 106.80143060279404 19.74878170248229 103.66593036870378 H 0.0 **** 0.06
11623 H 107.4995487580319 18.565400059970557 104.79834076551447 H 0.0 **** 0.06
11624 H 106.40421677996092 19.83454680832216 105.39791958396796 H 0.0 **** 0.06
11625 H 108.03834826052996 20.261662203247624 104.83787767729598 H 0.0 **** 0.06
11626 C 80.70622103335569 67.59318740460992 103.3076377678795 C 0.0 **** -0.24
11627 H 79.96217415953247 66.90096868334047 102.91103050348676 H 0.0 **** 0.06
11628 H 80.58910328826109 67.67099008110694 104.38835044447299 H 0.0 **** 0.06
11629 H 80.56572221685973 68.5744037641615 102.85392499080126 H 0.0 **** 0.06
11630 H 81.70506407874954 67.22490108640181 103.07427223026679 H 0.0 **** 0.06
11631 C 103.10936791132252 43.21969342523815 98.47443468508004 C 0.0 **** -0.24
11632 H 103.00868696072854 44.114002634551156 99.08998821871586 H 0.0 **** 0.06
11633 H 103.19781004550754 42.344102767243214 99.11801043733016 H 0.0 **** 0.06
11634 H 104.0017408866276 43.30562290072942 97.8530777705767 H 0.0 **** 0.06
11635 H 102.23175050938679 43.11611235573784 97.83738890761623 H 0.0 **** 0.06
11636 C 101.20531361430652 96.66347728826895 14.495562152052983 C 0.0 **** -0.24
11637 H 101.60474122089806 95.66655499104024 14.682121143002238 H 0.0 **** 0.06
11638 H 100.68883173976832 97.02062533644568 15.386615734001733 H 0.0 **** 0.06
11639 H 100.50507821847414 96.624719900689 13.660830451104754 H 0.0 **** 0.06
11640 H 102.0226032780855 97.34200892490111 14.252681280103065 H 0.0 **** 0.06
11641 C 83.88817727815231 104.91432834252974 66.58693087716418 C 0.0 **** -0.24
11642 H 83.85450694623864 105.90592649248346 66.13548414201142 H 0.0 **** 0.06
11643 H 83.74710348651377 104.15898022396776 65.8141798749316 H 0.0 **** 0.06
11644 H 83.09429935555539 104.82741057608696 67.329613138691 H 0.0 **** 0.06
11645 H 84.85437609813766 104.76721425928028 67.06799006587835 H 0.0 **** 0.06
11646 C 95.61526727689375 50.24203063240816 73.75689066005279 C 0.0 **** -0.24
11647 H 95.88146008133552 50.737969908880814 74.68983187524752 H 0.0 **** 0.06
11648 H 94.54535644431058 50.34820134643684 73.58140204223895 H 0.0 **** 0.06
11649 H 95.86972996079041 49.18375645156141 73.82447239408607 H 0.0 **** 0.06
11650 H 96.16660817129502 50.69591403776968 72.93342128989363 H 0.0 **** 0.06
11651 C 58.84170974102443 43.92517359545161 48.319897544782805 C 0.0 **** -0.24
11652 H 59.2479368517304 44.90236123232117 48.580209986579014 H 0.0 **** 0.06
11653 H 59.14596727911848 43.1944939657393 49.0699791473797 H 0.0 **** 0.06
11654 H 59.220216518114896 43.622171514418795 47.34366391970473 H 0.0 **** 0.06
11655 H 57.75393519107206 43.981122288151255 48.286208159309105 H 0.0 **** 0.06
11656 C 5.7598960537509925 88.33004346667178 81.53563468093597 C 0.0 **** -0.24
11657 H 5.892821251458969 88.35648888871376 82.61729556870691 H 0.0 **** 0.06
11658 H 6.370640794439652 89.10745366225359 81.07655627518318 H 0.0 **** 0.06
11659 H 4.710731000494292 88.50124221171214 81.29438083037658 H 0.0 **** 0.06
11660 H 6.065968810955013 87.3545782206038 81.1566507895093 H 0.0 **** 0.06
11661 C 38.243526457441874 104.57582472777887 84.34465502251959 C 0.0 **** -0.24
11662 H 38.737526610496744 103.65679578553659 84.02707911917304 H 0.0 **** 0.06
11663 H 37.61755717520275 104.36997378986865 85.21249460642477 H 0.0 **** 0.06
11664 H 37.625431964490446 104.95521499220547 83.53135807613438 H 0.0 **** 0.06
11665 H 38.996187522367535 105.31932069218783 84.60715989604051 H 0.0 **** 0.06
11666 C 25.790834469785764 110.45141325449623 37.193778776989404 C 0.0 **** -0.24
11667 H 26.562765354318415 109.70861275629129 37.395320009762486 H 0.0 **** 0.06
11668 H 26.24627646691762 111.44011333611957 37.12979819239632 H 0.0 **** 0.06
11669 H 25.05754686601324 110.44003445055475 37.99997263021777 H 0.0 **** 0.06
11670 H 25.29801269799202 110.21675415244641 36.2506443721544 H 0.0 **** 0.06
11671 C 44.761066154270054 16.653020244966573 44.56118017530737 C 0.0 **** -0.24
11672 H 45.65398711913311 17.161528163667967 44.198747373490534 H 0.0 **** 0.06
11673 H 45.022512994063845 15.641713169300072 44.87730108188443 H 0.0 **** 0.06
11674 H 44.02136820797417 16.604203556217875 43.76206215392619 H 0.0 **** 0.06
11675 H 44.347721521314384 17.202854756506763 45.406876320353426 H 0.0 **** 0.06
11676 C 59.081136027076 83.1284198310188 47.02589886343736 C 0.0 **** -0.24
11677 H 58.83090849474601 83.11628826189067 48.08704577769117 H 0.0 **** 0.06
11678 H 59.947347024011066 82.49019526023564 46.84937500236251 H 0.0 **** 0.06
11679 H 59.3126558896239 84.14852894931562 46.71828756761968 H 0.0 **** 0.06
11680 H 58.2336326999229 82.7586668526332 46.44888710607583 H 0.0 **** 0.06
11681 C 15.071724296030851 4.651861448385461 46.892088738032726 C 0.0 **** -0.24
11682 H 15.39247396784478 5.6901018141743975 46.98792932703935 H 0.0 **** 0.06
11683 H 15.915945985654105 4.039262273604493 46.574065510726484 H 0.0 **** 0.06
11684 H 14.27407423464038 4.58527754476242 46.15173630153333 H 0.0 **** 0.06
11685 H 14.70457534019556 4.295596305787001 47.854205928657564 H 0.0 **** 0.06
11686 C 3.67098747181754 39.29010671936538 8.911653449319374 C 0.0 **** -0.24
11687 H 2.8228830018104887 39.20639044769854 8.232789635662982 H 0.0 **** 0.06
11688 H 3.9751142960588552 40.3346877534554 8.987146045551242 H 0.0 **** 0.06
11689 H 4.502252420550638 38.696074961826355 8.529091435094017 H 0.0 **** 0.06
11690 H 3.3846757182968563 38.92150081168802 9.896635171458229 H 0.0 **** 0.06
11691 C 1.2616438839332922 65.47632793599924 109.65458082820226 C 0.0 **** -0.24
11692 H 1.2872386033933365 66.16992275463879 110.49623394590748 H 0.0 **** 0.06
11693 H 1.9630095654334445 64.66187848226662 109.83502191204656 H 0.0 **** 0.06
11694 H 1.5410200070600384 66.00345763471228 108.74226454470008 H 0.0 **** 0.06
11695 H 0.25482331460385144 65.07293811843437 109.5477084066907 H 0.0 **** 0.06
11696 C 1.869378149754283 75.16379886940467 54.07657198892676 C 0.0 **** -0.24
11697 H 1.4072210163245984 75.88382015572027 53.400197881344866 H 0.0 **** 0.06
11698 H 2.952267905109153 75.18866594313124 53.94784660110463 H 0.0 **** 0.06
11699 H 1.498415007810081 74.16428786731704 53.851774771611844 H 0.0 **** 0.06
11700 H 1.62045449242828 75.42144484639223 55.10608852716328 H 0.0 **** 0.06
11701 C 102.29769284874126 39.948668557720566 2.714288885447445 C 0.0 **** -0.24
11702 H 101.31509698061294 39.83789038442261 2.2574626544841863 H 0.0 **** 0.06
11703 H 102.7463621098024 40.888039577887135 2.3878048527475357 H 0.0 **** 0.06
11704 H 102.9350006668848 39.11778200012809 2.411320213385011 H 0.0 **** 0.06
11705 H 102.19633687119612 39.95253956845646 3.7993799844698515 H 0.0 **** 0.06
11706 C 9.197311420151234 82.55790327019514 31.719494664555654 C 0.0 **** -0.24
11707 H 8.237687715836525 82.3880472187036 31.232081124159315 H 0.0 **** 0.06
11708 H 9.731386678684578 81.611981054462 31.810629302638183 H 0.0 **** 0.06
11709 H 9.031158794456028 82.97843030134959 32.711861083805196 H 0.0 **** 0.06
11710 H 9.788000932847963 83.25362959395284 31.124730473489116 H 0.0 **** 0.06
11711 C 84.05435198739582 53.95545108795426 94.64311128146272 C 0.0 **** -0.24
11712 H 84.17694718859707 54.18150240425675 95.70310044717675 H 0.0 **** 0.06
11713 H 84.01420212100743 54.8860627354326 94.07609917013355 H 0.0 **** 0.06
11714 H 83.12931600979311 53.39845173480066 94.49563290420497 H 0.0 **** 0.06
11715 H 84.89881322346878 53.35640904543726 94.29987423789368 H 0.0 **** 0.06
11716 C 24.58410390213919 64.79661273002242 22.677579604745063 C 0.0 **** -0.24
11717 H 23.912618831478653 64.17947327173584 22.08003340862399 H 0.0 **** 0.06
11718 H 24.100401336319237 65.04854420725533 23.622047263518994 H 0.0 **** 0.06
11719 H 24.817119215299783 65.7109460885742 22.132218177926177 H 0.0 **** 0.06
11720 H 25.50384722558033 64.24580298968799 22.874895565264694 H 0.0 **** 0.06
11721 C 21.775351902550753 72.4357375323761 103.04001979983396 C 0.0 **** -0.24
11722 H 22.73802649691031 71.98010891382702 103.27177164214173 H 0.0 **** 0.06
11723 H 20.97764706892075 71.85912165383849 103.50955458884668 H 0.0 **** 0.06
11724 H 21.628533443404304 72.44710871391112 101.96046631866405 H 0.0 **** 0.06
11725 H 21.757229297069067 73.45827935280306 103.42007985064231 H 0.0 **** 0.06
11726 C 45.934503570627626 7.085796875458495 16.463636149121555 C 0.0 **** -0.24
11727 H 46.47075878731479 6.508315528513162 17.217276922207304 H 0.0 **** 0.06
11728 H 45.14258882575583 7.662357973348579 16.944658197872087 H 0.0 **** 0.06
11729 H 45.497240933714075 6.409074057378463 15.730044773951931 H 0.0 **** 0.06
11730 H 46.626302847495054 7.764510088905956 15.965969788764681 H 0.0 **** 0.06
11731 C 7.46413396009747 109.57108543973777 22.763203013472832 C 0.0 **** -0.24
11732 H 7.407754257687699 108.52521786229823 23.064286140851692 H 0.0 **** 0.06
11733 H 6.816537995472899 110.16869756557162 23.404358158671528 H 0.0 **** 0.06
11734 H 7.140293788791951 109.66871875227105 21.726893202849084 H 0.0 **** 0.06
11735 H 8.492556887914745 109.92164941150057 22.856482018107812 H 0.0 **** 0.06
11736 C 26.610443526455697 98.98614743665735 27.761678813728253 C 0.0 **** -0.24
11737 H 27.086713071608983 98.27053301725647 27.090685439322442 H 0.0 **** 0.06
11738 H 25.985837928856938 99.66619750212391 27.1821121587501 H 0.0 **** 0.06
11739 H 27.376739338198377 99.5545259378905 28.288857477901104 H 0.0 **** 0.06
11740 H 25.99378217323084 98.45078095340341 28.483718454072374 H 0.0 **** 0.06
11741 C 87.27924981157523 106.5645758253738 93.78899486811326 C 0.0 **** -0.24
11742 H 86.6592273096735 107.20538649098822 93.1621276444962 H 0.0 **** 0.06
11743 H 86.95441096250099 106.64794194644504 94.82697735015603 H 0.0 **** 0.06
11744 H 88.32099517777365 106.87678900047217 93.70850069598873 H 0.0 **** 0.06
11745 H 87.18240751293067 105.53031117736796 93.4595909928608 H 0.0 **** 0.06
11746 C 16.59452331300153 32.78337253076313 72.85992640076635 C 0.0 **** -0.24
11747 H 17.199472500183134 31.965984334205146 72.46755190371671 H 0.0 **** 0.06
11748 H 17.016909944174586 33.126684132939694 73.80359495650839 H 0.0 **** 0.06
11749 H 15.574933484744832 32.43455121235834 73.02324814529084 H 0.0 **** 0.06
11750 H 16.58624955027193 33.60561039079016 72.14477596058666 H 0.0 **** 0.06
11751 C 43.41955194911003 39.43837785810382 106.01059760035365 C 0.0 **** -0.24
11752 H 42.77797401460339 39.82130981509408 106.8043920419057 H 0.0 **** 0.06
11753 H 42.89934839199776 39.51368524929478 105.05605123973973 H 0.0 **** 0.06
11754 H 43.66151347707836 38.394368435109755 106.21230711928877 H 0.0 **** 0.06
11755 H 44.33764352299983 40.023424940773 105.97175904588254 H 0.0 **** 0.06
11756 C 55.78899205749664 27.318110251577366 26.737996858746328 C 0.0 **** -0.24
11757 H 55.33559716168028 27.275369821926347 25.747643860850246 H 0.0 **** 0.06
11758 H 55.48475068474275 26.44460844051372 27.315258965602766 H 0.0 **** 0.06
11759 H 55.46053261692293 28.223414165525526 27.248828500796094 H 0.0 **** 0.06
11760 H 56.87431908587064 27.32967200559341 26.64039935094297 H 0.0 **** 0.06
11761 C 8.18552632720407 36.18005044813356 41.1439204052231 C 0.0 **** -0.24
11762 H 9.103953980358481 36.683755638342575 40.84241673927127 H 0.0 **** 0.06
11763 H 7.574991189920594 35.978855321262145 40.26405901672875 H 0.0 **** 0.06
11764 H 7.631996954179304 36.81771318964755 41.83379665141612 H 0.0 **** 0.06
11765 H 8.432838458871021 35.239759671221435 41.636885624424394 H 0.0 **** 0.06
11766 C 31.562902013805342 66.02708746720202 1.796093384123509 C 0.0 **** -0.24
11767 H 31.03684252362757 66.81986934543852 2.3279007139130385 H 0.0 **** 0.06
11768 H 32.57900924750197 65.94398457876281 2.1808500564740143 H 0.0 **** 0.06
11769 H 31.59476311106772 66.2626886987787 0.7326002559366316 H 0.0 **** 0.06
11770 H 31.039596460113586 65.08158543330819 1.9430321437735358 H 0.0 **** 0.06
11771 C 110.24822923133918 46.29398713089654 93.03971365913804 C 0.0 **** -0.24
11772 H 110.88549130383005 45.480090223037365 92.69474180857526 H 0.0 **** 0.06
11773 H 110.29666670165558 46.35766971179811 94.12678268779253 H 0.0 **** 0.06
11774 H 109.22043112028678 46.105664710534825 92.73151506042882 H 0.0 **** 0.06
11775 H 110.59241426912861 47.23261389929513 92.60501583484117 H 0.0 **** 0.06
11776 C 12.824591251073002 75.23683133428096 101.31975570995553 C 0.0 **** -0.24
11777 H 12.21054019076421 75.94123314072226 101.88035368751787 H 0.0 **** 0.06
11778 H 12.225563050844933 74.3658655819637 101.05276950182417 H 0.0 **** 0.06
11779 H 13.67020368933364 74.92332189967084 101.93200171855 H 0.0 **** 0.06
11780 H 13.191772644455824 75.71738142506382 100.41259740196324 H 0.0 **** 0.06
11781 C 79.15652509016864 25.359444612037162 55.829180778881096 C 0.0 **** -0.24
11782 H 78.46970617105958 26.1783145114021 56.03902000653534 H 0.0 **** 0.06
11783 H 79.4908614153156 24.91523340038544 56.767240692261225 H 0.0 **** 0.06
11784 H 80.01742156234188 25.739097364884437 55.2794974614489 H 0.0 **** 0.06
11785 H 78.64804493583239 24.603630806237206 55.23010550371265 H 0.0 **** 0.06
11786 C 34.51892783777498 77.5088507761177 22.738800326687766 C 0.0 **** -0.24
11787 H 35.399684218836114 77.87901499387974 23.263192701446656 H 0.0 **** 0.06
11788 H 33.630102769606935 77.70750190186212 23.338332228139024 H 0.0 **** 0.06
11789 H 34.61580708358787 76.43588027665191 22.576851602505656 H 0.0 **** 0.06
11790 H 34.428915626280116 78.0150302769789 21.777501797523485 H 0.0 **** 0.06
11791 C 3.0840132092982753 110.66995589543765 21.323701899238927 C 0.0 **** -0.24
11792 H 2.303926397499282 109.9783913099223 21.00477441143471 H 0.0 **** 0.06
11793 H 2.63659571808123 111.48154665022057 21.897346177865785 H 0.0 **** 0.06
11794 H 3.5883861330355646 111.07748585491771 20.447339510225078 H 0.0 **** 0.06
11795 H 3.807396512256103 110.14055370071833 21.944620327575137 H 0.0 **** 0.06
11796 C 53.83272641109942 14.857072715373306 90.61771056919126 C 0.0 **** -0.24
11797 H 53.62383045984026 14.925571604316247 89.54964916415463 H 0.0 **** 0.06
11798 H 54.85145821015204 14.498367925193293 90.76651296564692 H 0.0 **** 0.06
11799 H 53.130459713914156 14.162792999854673 91.08035076583906 H 0.0 **** 0.06
11800 H 53.72303107817125 15.84200002384057 91.07251701819284 H 0.0 **** 0.06
11801 C 81.97186683739433 102.85803563840543 56.222239505024035 C 0.0 **** -0.24
11802 H 81.3069144973217 103.71676411377814 56.31125912389115 H 0.0 **** 0.06
11803 H 81.57949108785985 102.03299815112986 56.817076597315484 H 0.0 **** 0.06
11804 H 82.96364941376831 103.12734916382063 56.58446352565258 H 0.0 **** 0.06
11805 H 82.0362948897126 102.55460540045317 55.177411845716094 H 0.0 **** 0.06
11806 C 66.80412521413018 77.89009369301579 50.54598935555718 C 0.0 **** -0.24
11807 H 65.76179665025393 77.89426834936057 50.228059424655825 H 0.0 **** 0.06
11808 H 67.12182714292942 78.9094403888883 50.76365536931791 H 0.0 **** 0.06
11809 H 67.42464157788402 77.47619177762735 49.75067594716882 H 0.0 **** 0.06
11810 H 66.90719146649826 77.27764581897833 51.442520866681186 H 0.0 **** 0.06
11811 C 61.015762784727514 77.65707114003098 13.06384818339555 C 0.0 **** -0.24
11812 H 61.42910268463643 77.89614200066569 12.084403982348263 H 0.0 **** 0.06
11813 H 59.95459793269502 77.42484846488863 12.963450887349822 H 0.0 **** 0.06
11814 H 61.1395751119241 78.51204185332239 13.728358760874272 H 0.0 **** 0.06
11815 H 61.53843886180029 76.79525068856388 13.478716784963112 H 0.0 **** 0.06
11816 C 9.451034133159794 7.247514902033778 5.757039323992046 C 0.0 **** -0.24
11817 H 8.766537278173772 6.497562850669135 5.361543847832095 H 0.0 **** 0.06
11818 H 8.998825645958476 8.236120325795337 5.667649064259308 H 0.0 **** 0.06
11819 H 10.383120037357031 7.222032667650769 5.193565104440708 H 0.0 **** 0.06
11820 H 9.655188929875422 7.0350741218516735 6.80689955832915 H 0.0 **** 0.06
11821 C 7.995104235185011 16.349267324728174 84.66103087297478 C 0.0 **** -0.24
11822 H 8.948878950444964 16.42752170956871 85.18278826148241 H 0.0 **** 0.06
11823 H 8.124304715993674 16.649709069559094 83.62099205039857 H 0.0 **** 0.06
11824 H 7.264129247972846 17.000301741851388 85.14001256573079 H 0.0 **** 0.06
11825 H 7.644084607290893 15.31753304214726 84.70017648686178 H 0.0 **** 0.06
11826 C 45.280413744637286 69.39258304691344 88.54143230436074 C 0.0 **** -0.24
11827 H 45.27899874354105 69.72682846099566 87.5037903869246 H 0.0 **** 0.06
11828 H 45.68979863063092 68.38436637703835 88.59796417834445 H 0.0 **** 0.06
11829 H 44.260100335264156 69.39306561294693 88.92403916739491 H 0.0 **** 0.06
11830 H 45.89253625649326 70.06825798330085 89.13952108100202 H 0.0 **** 0.06
11831 C 32.53051666393176 15.804694372253952 50.690041362997306 C 0.0 **** -0.24
11832 H 32.313616890408355 16.519063661951655 51.48441895152894 H 0.0 **** 0.06
11833 H 33.610578299937686 15.725266496401577 50.558664396730876 H 0.0 **** 0.06
11834 H 32.07523439848421 16.14606797230224 49.76046788725438 H 0.0 **** 0.06
11835 H 32.12414473559423 14.829337065805277 50.95751417906183 H 0.0 **** 0.06
11836 C 53.11444548947488 14.604292717573685 49.502235513320386 C 0.0 **** -0.24
11837 H 52.05472471674927 14.55883080944102 49.75439787889576 H 0.0 **** 0.06
11838 H 53.32446840914575 15.538293714397952 48.980405774157134 H 0.0 **** 0.06
11839 H 53.3715219983152 13.762781037646377 48.859323026278446 H 0.0 **** 0.06
11840 H 53.70602181035303 14.557030529061876 50.41677829424526 H 0.0 **** 0.06
11841 C 83.58096890751187 80.05321266730107 66.27282437284948 C 0.0 **** -0.24
11842 H 83.49878361345145 79.4666206628992 65.35686792411185 H 0.0 **** 0.06
11843 H 84.22623818254294 79.532298010798 66.97997654837434 H 0.0 **** 0.06
11844 H 82.59129064010497 80.18273762318069 66.71059364256922 H 0.0 **** 0.06
11845 H 84.00770415471169 81.0286340894815 66.04175565704797 H 0.0 **** 0.06
11846 C 54.65980319601995 99.10298154776429 41.31685437789764 C 0.0 **** -0.24
11847 H 53.96949912114801 98.79811789460912 42.10341026939801 H 0.0 **** 0.06
11848 H 55.165050420111086 100.02277056214163 41.61411053183443 H 0.0 **** 0.06
11849 H 54.105753716368994 99.27368365720294 40.39394014322261 H 0.0 **** 0.06
11850 H 55.39871677674593 98.31706777743419 41.15816589541305 H 0.0 **** 0.06
11851 C 74.27020843895684 99.7143188550769 91.26719596828895 C 0.0 **** -0.24
11852 H 74.34914310120433 99.03159625231811 90.4212734602105 H 0.0 **** 0.06
11853 H 73.38787357875373 99.46157857347288 91.85609692033677 H 0.0 **** 0.06
11854 H 74.18184471655172 100.73771489969005 90.90136381501236 H 0.0 **** 0.06
11855 H 75.1598887498956 99.6267933048864 91.8893477679137 H 0.0 **** 0.06
11856 C 103.06090163349 18.861267551190764 55.367444803757046 C 0.0 **** -0.24
11857 H 102.59169214796432 18.885021248171405 54.38379905384632 H 0.0 **** 0.06
11858 H 103.06108817391599 17.83849756389097 55.74459763767495 H 0.0 **** 0.06
11859 H 102.50266475628668 19.500842381001505 56.05148090096515 H 0.0 **** 0.06
11860 H 104.08637055754306 19.220383265013478 55.288602844676454 H 0.0 **** 0.06
11861 C 54.97813451620834 5.243311939421659 62.33842852795857 C 0.0 **** -0.24
11862 H 55.79231902282643 5.687088974111381 62.91062361809077 H 0.0 **** 0.06
11863 H 55.387764644408975 4.563176158616477 61.59119078676633 H 0.0 **** 0.06
11864 H 54.41113999682449 6.030194285424715 61.841573326090156 H 0.0 **** 0.06
11865 H 54.321836097626715 4.690671228527242 63.010822288909765 H 0.0 **** 0.06
11866 C 55.590822411661144 71.29359068745033 70.52469002241719 C 0.0 **** -0.24
11867 H 56.52565391071761 71.21291312036136 69.96869901274528 H 0.0 **** 0.06
11868 H 55.79278975797642 71.19331697341303 71.59086406001327 H 0.0 **** 0.06
11869 H 54.91063826696759 70.50257347803671 70.20770410393118 H 0.0 **** 0.06
11870 H 55.13580991090705 72.2644215949387 70.32882094492982 H 0.0 **** 0.06
11871 C 25.928356614991543 62.92272793787994 36.920538287932914 C 0.0 **** -0.24
11872 H 26.24410324912199 63.418043035303455 37.83977756373753 H 0.0 **** 0.06
11873 H 25.95656456968908 63.63544585052951 36.09604738898378 H 0.0 **** 0.06
11874 H 24.912468447648735 62.54710512907103 37.04206383274766 H 0.0 **** 0.06
11875 H 26.600745365918158 62.09194109116174 36.706939817788964 H 0.0 **** 0.06
11876 C 109.2277551956435 51.99801020805771 55.26684567848963 C 0.0 **** -0.24
11877 H 108.94520406554994 51.098174159896494 55.812616364825544 H 0.0 **** 0.06
11878 H 108.48283105709439 52.206973558242844 54.49874405711597 H 0.0 **** 0.06
11879 H 110.2010365482939 51.847404727697885 54.79741704575761 H 0.0 **** 0.06
11880 H 109.28387212191282 52.83935103956934 55.957472365546096 H 0.0 **** 0.06
11881 C 71.9171624689787 59.44210557168613 89.57354131890295 C 0.0 **** -0.24
11882 H 71.91899461834214 58.36836245891584 89.75888441001632 H 0.0 **** 0.06
11883 H 72.92350094340317 59.76698393948733 89.30888746387984 H 0.0 **** 0.06
11884 H 71.59173153172948 59.96607106340147 90.47249383344115 H 0.0 **** 0.06
11885 H 71.23540476178383 59.66842965491699 88.75397524480377 H 0.0 **** 0.06
11886 C 105.01622116256989 51.518073836798294 32.281871042401065 C 0.0 **** -0.24
11887 H 105.64164110203667 51.945633326487666 33.066026991080435 H 0.0 **** 0.06
11888 H 104.59945486694791 52.319586809658915 31.671732898048788 H 0.0 **** 0.06
11889 H 104.2059537429205 50.94659813793737 32.73487322498357 H 0.0 **** 0.06
11890 H 105.61948922351299 50.86035253585891 31.656350416202656 H 0.0 **** 0.06
11891 C 52.026020434383796 74.35893903536316 23.250907841590006 C 0.0 **** -0.24
11892 H 53.0332501478635 74.29144938208657 23.66272723268832 H 0.0 **** 0.06
11893 H 51.988316221186196 73.83592043436394 22.296014862692864 H 0.0 **** 0.06
11894 H 51.76317344034737 75.40657728639971 23.10329246069829 H 0.0 **** 0.06
11895 H 51.31935578189969 73.9024008147673 23.94375316378417 H 0.0 **** 0.06
11896 C 13.207804820508045 90.30490071371935 12.759352347845862 C 0.0 **** -0.24
11897 H 14.168553110194807 90.80639381097171 12.872064749678032 H 0.0 **** 0.06
11898 H 12.840694771518997 89.9985748325414 13.739535219378737 H 0.0 **** 0.06
11899 H 13.327894434731604 89.42603908656686 12.124934096884274 H 0.0 **** 0.06
11900 H 12.492529120915009 90.98785078831447 12.301099581778473 H 0.0 **** 0.06
11901 C 81.64912287972457 89.63376597541293 98.46033256123178 C 0.0 **** -0.24
11902 H 81.6552104891973 90.62483721567801 98.91593497178877 H 0.0 **** 0.06
11903 H 80.63792265207734 89.22763670407898 98.49059574752147 H 0.0 **** 0.06
11904 H 82.3225574768999 88.97734367968144 99.01215534574999 H 0.0 **** 0.06
11905 H 81.98154750543961 89.70776623148959 97.42490097874395 H 0.0 **** 0.06
11906 C 9.007855015371135 89.38900160059279 61.34194166846737 C 0.0 **** -0.24
11907 H 8.977066976924874 90.44360378024373 61.06884818337218 H 0.0 **** 0.06
11908 H 8.449376308273003 89.23675403629335 62.265778216376646 H 0.0 **** 0.06
11909 H 10.042745032424506 89.08203417038465 61.48808989773892 H 0.0 **** 0.06
11910 H 8.561397367483181 88.7947434124909 60.54487925568469 H 0.0 **** 0.06
11911 C 32.49795802735788 94.88304523885404 39.46320548543037 C 0.0 **** -0.24
11912 H 31.767472333030497 94.26031049349035 39.97950366720933 H 0.0 **** 0.06
11913 H 32.908959770106634 95.61448339355411 40.16028124342459 H 0.0 **** 0.06
11914 H 32.01232233040432 95.40161097217475 38.63706491656122 H 0.0 **** 0.06
11915 H 33.30158861673877 94.25675249353861 39.07732474250922 H 0.0 **** 0.06
11916 C 85.62337795255002 103.1473783637652 16.38353877291358 C 0.0 **** -0.24
11917 H 86.4591625662639 103.6521998121433 15.898545843615569 H 0.0 **** 0.06
11918 H 85.8348360811658 103.03310101308273 17.446225851608048 H 0.0 **** 0.06
11919 H 85.48160213602307 102.16462591581785 15.933357699372124 H 0.0 **** 0.06
11920 H 84.71721995000047 103.7395044810674 16.254794538569318 H 0.0 **** 0.06
11921 C 31.044204925580573 2.946942797114076 69.68757953033814 C 0.0 **** -0.24
11922 H 30.976571861338414 2.590976162151378 70.71562926587085 H 0.0 **** 0.06
11923 H 30.609944395571375 2.205014752395755 69.01720253377084 H 0.0 **** 0.06
11924 H 32.09109084720859 3.1033534349743093 69.42652525353004 H 0.0 **** 0.06
11925 H 30.500233907493964 3.8867253382668707 69.59199163802153 H 0.0 **** 0.06
11926 C 74.54439240904503 61.28215253728321 8.665312334483838 C 0.0 **** -0.24
11927 H 73.81270744116948 61.831258662750045 9.258670022005168 H 0.0 **** 0.06
11928 H 75.24792179140528 61.98364748850054 8.216117488489495 H 0.0 **** 0.06
11929 H 74.03244220851715 60.72613451252947 7.880308099558253 H 0.0 **** 0.06
11930 H 75.08563635755776 60.588231717422076 9.309357887398706 H 0.0 **** 0.06
11931 C 21.880579194777482 43.19129776036229 39.543237599776546 C 0.0 **** -0.24
11932 H 22.240756073113317 44.1471458740281 39.162165748094594 H 0.0 **** 0.06
11933 H 22.01544015626891 43.15870891821456 40.62485688255083 H 0.0 **** 0.06
11934 H 22.443104457699548 42.38114603218355 39.081197401159386 H 0.0 **** 0.06
11935 H 20.822416266284506 43.08161734857066 39.30567674568289 H 0.0 **** 0.06
11936 C 5.440221605447421 86.75233705850155 18.044779705603347 C 0.0 **** -0.24
11937 H 5.040836878380928 87.31277770008995 17.199329013241 H 0.0 **** 0.06
11938 H 6.406061684506865 87.16845174259313 18.332185808875984 H 0.0 **** 0.06
11939 H 5.563912783060875 85.70720403506351 17.762184313714513 H 0.0 **** 0.06
11940 H 4.749179049741372 86.82200426522047 18.885520721268044 H 0.0 **** 0.06
11941 C 70.15292525440357 64.23954193572318 58.89649548432135 C 0.0 **** -0.24
11942 H 70.80429085029635 64.5115084573729 58.06588317629155 H 0.0 **** 0.06
11943 H 69.52321062628859 65.09099102032881 59.15718638133603 H 0.0 **** 0.06
11944 H 70.76006323939872 63.95955366056042 59.756941722207216 H 0.0 **** 0.06
11945 H 69.52488650616566 63.39885015029762 58.60499370527242 H 0.0 **** 0.06
11946 C 38.0526617229379 11.696971572071497 21.604310567186445 C 0.0 **** -0.24
11947 H 39.04187955292562 12.054120022801367 21.89155580494065 H 0.0 **** 0.06
11948 H 37.43902335151677 11.573930405885417 22.49703257292927 H 0.0 **** 0.06
11949 H 38.14742860973007 10.73991853348818 21.091940176042897 H 0.0 **** 0.06
11950 H 37.58502771431526 12.421460873830274 20.937224784928674 H 0.0 **** 0.06
11951 C 78.83759167533611 29.72413801587595 54.14683792812801 C 0.0 **** -0.24
11952 H 79.24281742441687 29.933195583854143 53.15653303407254 H 0.0 **** 0.06
11953 H 79.02766505662086 28.680875939449862 54.403265677828756 H 0.0 **** 0.06
11954 H 77.7635587658292 29.908668034087555 54.14600839239921 H 0.0 **** 0.06
11955 H 79.3176905868529 30.37179889733602 54.87952413894186 H 0.0 **** 0.06
11956 C 97.60778657703736 7.136417717112693 106.76452521524294 C 0.0 **** -0.24
11957 H 96.57023198799766 6.833133123749008 106.62291771310898 H 0.0 **** 0.06
11958 H 97.66505128004769 8.223183015148436 106.817237860742 H 0.0 **** 0.06
11959 H 98.20739463258269 6.781193219087015 105.9260238720626 H 0.0 **** 0.06
11960 H 97.98819932231953 6.706084305688819 107.69113843047765 H 0.0 **** 0.06
11961 C 20.56550879488003 108.80451576024429 15.544775924312148 C 0.0 **** -0.24
11962 H 19.745852145954217 109.42999954702464 15.19078898138099 H 0.0 **** 0.06
11963 H 20.64336587056127 107.91833538697664 14.914575658472984 H 0.0 **** 0.06
11964 H 20.37270153595722 108.50208637470692 16.574308140027085 H 0.0 **** 0.06
11965 H 21.497364147583824 109.36662249606002 15.498805640780859 H 0.0 **** 0.06
11966 C 12.287464114771417 47.41985451915383 64.47496691161575 C 0.0 **** -0.24
11967 H 12.886541782599291 47.72998522944113 63.618292722888555 H 0.0 **** 0.06
11968 H 11.72327725652082 46.523968217405866 64.2173885487228 H 0.0 **** 0.06
11969 H 11.597987167612619 48.21956840417147 64.74422503861055 H 0.0 **** 0.06
11970 H 12.943958036142526 47.206774186236714 65.31919335348442 H 0.0 **** 0.06
11971 C 32.82207875258007 26.882191710483703 54.96262985759245 C 0.0 **** -0.24
11972 H 32.656185079597805 25.91952037337443 55.44688180714917 H 0.0 **** 0.06
11973 H 31.982977710262958 27.544151287384985 55.17477992287684 H 0.0 **** 0.06
11974 H 32.9070215858882 26.735968973068204 53.88536043523041 H 0.0 **** 0.06
11975 H 33.74171741719232 27.32556071913819 55.34315492987437 H 0.0 **** 0.06
11976 C 22.880494156805412 8.890479129673679 71.42880969463423 C 0.0 **** -0.24
11977 H 23.46989952258633 8.60006561984018 72.29855106091195 H 0.0 **** 0.06
11978 H 23.031574762490095 8.164571205180806 70.62906840494287 H 0.0 **** 0.06
11979 H 23.19705363470088 9.876207443108768 71.0883269409474 H 0.0 **** 0.06
11980 H 21.82431236223863 8.920419655277527 71.69838225067583 H 0.0 **** 0.06
11981 C 42.41881936310852 33.10342033656726 77.77030461622124 C 0.0 **** -0.24
11982 H 42.835203494294205 33.93233841873257 78.34375022078032 H 0.0 **** 0.06
11983 H 42.920699970429645 33.041464223938654 76.80470737730832 H 0.0 **** 0.06
11984 H 41.35246749021395 33.26928150824136 77.61556771152226 H 0.0 **** 0.06
11985 H 42.565361634122276 32.172497544354826 78.31714444690141 H 0.0 **** 0.06
11986 C 22.440567682563227 107.55244548995978 109.93776964919384 C 0.0 **** -0.24
11987 H 21.619991098397747 107.38111125714357 110.63496647668906 H 0.0 **** 0.06
11988 H 23.152280827711166 106.72957988198687 110.00522575795864 H 0.0 **** 0.06
11989 H 22.941222275271173 108.48714565056594 110.18821778177772 H 0.0 **** 0.06
11990 H 22.04768084757262 107.61078012051911 108.92200352945274 H 0.0 **** 0.06
11991 C 104.51393547005858 30.015201032282476 0.2639657943470013 C 0.0 **** -0.24
11992 H 104.41614274489363 29.10215664321632 0.8506746020282066 H 0.0 **** 0.06
11993 H 105.44600585101115 30.516025598518723 0.5252860553967764 H 0.0 **** 0.06
11994 H 103.67330630541825 30.676026574036115 0.47645570628863254 H 0.0 **** 0.06
11995 H 104.52047820999425 29.76459929474504 -0.7975429296021019 H 0.0 **** 0.06
11996 C 36.76154209081778 28.84763852483683 70.20380908047377 C 0.0 **** -0.24
11997 H 36.683235924750285 28.974760703897445 69.12365868645634 H 0.0 **** 0.06
11998 H 35.9368092600369 28.228619520803 70.55648448998602 H 0.0 **** 0.06
11999 H 36.718636763728846 29.822894806501388 70.68857711045172 H 0.0 **** 0.06
12000 H 37.7088743506932 28.36434452208824 70.44476400731861 H 0.0 **** 0.06
12001 C 110.18177152816044 19.596564469808925 34.13755161881974 C 0.0 **** -0.24
12002 H 111.04873458286525 19.939687191400765 33.57369299214554 H 0.0 **** 0.06
12003 H 109.33188732038138 19.483394833263787 33.46323471665005 H 0.0 **** 0.06
12004 H 109.93921973616297 20.32527560313457 34.910523420147655 H 0.0 **** 0.06
12005 H 110.40777805045668 18.635760745898267 34.60168852251533 H 0.0 **** 0.06
12006 C 103.63640642760129 27.359283477349322 68.11159259856316 C 0.0 **** -0.24
12007 H 104.49333436954595 27.16513883782968 67.46661501090591 H 0.0 **** 0.06
12008 H 103.05874216628453 28.19006229940657 67.70498918272439 H 0.0 **** 0.06
12009 H 103.98444073018783 27.614098692326806 69.11189904675113 H 0.0 **** 0.06
12010 H 103.00904282853412 26.469170723683003 68.16018209702291 H 0.0 **** 0.06
12011 C 76.72283800954531 43.44279327807374 38.32347990186103 C 0.0 **** -0.24
12012 H 76.34878198612743 42.67659087010492 37.64471729751974 H 0.0 **** 0.06
12013 H 75.88274120881316 43.95688418817025 38.78964360277037 H 0.0 **** 0.06
12014 H 77.32323072045251 44.160781371938555 37.763807249937415 H 0.0 **** 0.06
12015 H 77.33734313902364 42.97730202911043 39.093678606555294 H 0.0 **** 0.06
12016 C 29.44341487321951 2.306247906558596 59.89670618792388 C 0.0 **** -0.24
12017 H 30.041845648503482 3.0845097619237407 59.4229838752197 H 0.0 **** 0.06
12018 H 28.39300532906421 2.597818021157437 59.884564909981265 H 0.0 **** 0.06
12019 H 29.771480226719476 2.1732066988413408 60.9276590952382 H 0.0 **** 0.06
12020 H 29.567703897596203 1.3709178085349265 59.35246865100163 H 0.0 **** 0.06
12021 C 69.47072551449567 72.47920619865414 66.921646609068 C 0.0 **** -0.24
12022 H 69.29067973601374 73.44949503091203 67.38506203607415 H 0.0 **** 0.06
12023 H 70.12139612264227 71.88584046240716 67.56486169652757 H 0.0 **** 0.06
12024 H 69.94920238545379 72.6231116264253 65.95297801928963 H 0.0 **** 0.06
12025 H 68.52214069606921 71.95990724204518 66.78486513267177 H 0.0 **** 0.06
12026 C 48.71518840723474 57.21117953638876 77.03146516512263 C 0.0 **** -0.24
12027 H 48.97246951358153 58.20901186585558 76.67625423748314 H 0.0 **** 0.06
12028 H 49.4960198980844 56.50896084986341 76.73890261451157 H 0.0 **** 0.06
12029 H 47.76663714782575 56.90302026434988 76.59218611741264 H 0.0 **** 0.06
12030 H 48.62495657177893 57.22401230115646 78.11783355932633 H 0.0 **** 0.06
12031 C 31.8820436341247 21.786326769048173 82.09612063029374 C 0.0 **** -0.24
12032 H 30.86581917715756 21.944802253701397 81.73640398989977 H 0.0 **** 0.06
12033 H 31.933455344238126 20.840474739057896 82.63639237582402 H 0.0 **** 0.06
12034 H 32.16278354597944 22.601672372730803 82.76260196165879 H 0.0 **** 0.06
12035 H 32.56710027335225 21.758372249849202 81.24806831072425 H 0.0 **** 0.06
12036 C 93.68001401230276 52.97284230655308 3.6077433870563027 C 0.0 **** -0.24
12037 H 93.33427457019806 53.066918146704445 2.5785244186632497 H 0.0 **** 0.06
12038 H 94.74917365199995 53.182033560789755 3.6523578863479145 H 0.0 **** 0.06
12039 H 93.49287141501541 51.959821499747 3.96310967089849 H 0.0 **** 0.06
12040 H 93.14378388965298 53.6839530906187 4.236586347102303 H 0.0 **** 0.06
12041 C 49.9118189290363 89.57140077306514 94.88061798736446 C 0.0 **** -0.24
12042 H 50.7473397062369 89.93557308079187 94.28417586079946 H 0.0 **** 0.06
12043 H 49.06045492169522 89.37068300904131 94.23010015747415 H 0.0 **** 0.06
12044 H 49.637218118263995 90.32481237959455 95.61844116619928 H 0.0 **** 0.06
12045 H 50.20320982016013 88.65362346477079 95.39126256695259 H 0.0 **** 0.06
12046 C 20.042648316219555 19.313571558621987 70.81216632735992 C 0.0 **** -0.24
12047 H 19.372487552537393 20.058615540261002 71.2407625684572 H 0.0 **** 0.06
12048 H 20.23524285735371 19.555758413182105 69.7673263546544 H 0.0 **** 0.06
12049 H 19.578823695433954 18.32897375909667 70.87770764469475 H 0.0 **** 0.06
12050 H 20.982894733534266 19.30924125159234 71.36421405352723 H 0.0 **** 0.06
12051 C 74.35015233528588 73.02478912501203 86.2621737675015 C 0.0 **** -0.24
12052 H 74.32530032127761 72.30286509424081 85.44688073911044 H 0.0 **** 0.06
12053 H 73.35660269714678 73.11123445411852 86.70186803114372 H 0.0 **** 0.06
12054 H 74.66230306385253 73.99568361573722 85.8774497865428 H 0.0 **** 0.06
12055 H 75.05698711977685 72.69100015866746 87.02238379621717 H 0.0 **** 0.06
12056 C 29.564339791921434 63.285876587705545 30.45091827544826 C 0.0 **** -0.24
12057 H 30.203755331983444 63.45544878451892 31.31698221501702 H 0.0 **** 0.06
12058 H 30.17360569713763 63.26732236501432 29.54746683081197 H 0.0 **** 0.06
12059 H 28.830879391926544 64.08976283809972 30.378506003471102 H 0.0 **** 0.06
12060 H 29.048827785344912 62.331920295829875 30.5608477271293 H 0.0 **** 0.06
12061 C 13.091095142577416 36.46524823607649 105.78009227095768 C 0.0 **** -0.24
12062 H 13.568363592622518 36.67082276372136 106.73807121395592 H 0.0 **** 0.06
12063 H 12.795715944365838 35.41567433645295 105.7395631375814 H 0.0 **** 0.06
12064 H 13.791739937978093 36.67751318688792 104.97231061009143 H 0.0 **** 0.06
12065 H 12.208483409061898 37.09628123225002 105.67200593086733 H 0.0 **** 0.06
12066 C 67.81102336489181 64.13291064772292 98.78005450215562 C 0.0 **** -0.24
12067 H 67.60522200625482 63.793399134259246 99.795674271179 H 0.0 **** 0.06
12068 H 68.03132038345026 63.27290751037101 98.14769340687104 H 0.0 **** 0.06
12069 H 68.66670088394915 64.8075441985835 98.7884360967497 H 0.0 **** 0.06
12070 H 66.93893556197787 64.65733860839975 98.38947683975545 H 0.0 **** 0.06
12071 C 45.16999234421519 106.56435341784334 37.63621962157562 C 0.0 **** -0.24
12072 H 44.7797319517193 105.55880179416991 37.48440589155575 H 0.0 **** 0.06
12073 H 46.14296999260287 106.65352273991851 37.1525078424913 H 0.0 **** 0.06
12074 H 45.274846261077755 106.7563982374989 38.70436811830008 H 0.0 **** 0.06
12075 H 44.48101469313741 107.2905942366562 37.20296462988114 H 0.0 **** 0.06
12076 C 77.11634705187069 3.861923583694562 53.94110230299731 C 0.0 **** -0.24
12077 H 77.83493529386845 3.6693038630372996 54.73736814033157 H 0.0 **** 0.06
12078 H 77.44623555660394 4.719827191769639 53.35373973029078 H 0.0 **** 0.06
12079 H 76.13949232457242 4.071494985386494 54.37600730546396 H 0.0 **** 0.06
12080 H 77.04621770894624 2.9857793660620473 53.295841148512466 H 0.0 **** 0.06
12081 C 85.49166377469867 30.05181816372965 9.031735624951864 C 0.0 **** -0.24
12082 H 85.13803346406586 31.0823931368438 9.059691855681123 H 0.0 **** 0.06
12083 H 85.32058367025645 29.58274442986606 10.002132608641034 H 0.0 **** 0.06
12084 H 86.55854889552941 30.03941643008178 8.805879180702178 H 0.0 **** 0.06
12085 H 84.95052969182088 29.502664965589503 8.261217357379707 H 0.0 **** 0.06
12086 C 42.30808020995977 66.23149510842913 89.42381170403604 C 0.0 **** -0.24
12087 H 41.69335901395368 66.69840295590261 88.65384503159589 H 0.0 **** 0.06
12088 H 43.36166385658993 66.35625126367944 89.17414167223433 H 0.0 **** 0.06
12089 H 42.07172543833519 65.16889315592263 89.48313509332127 H 0.0 **** 0.06
12090 H 42.10442004413713 66.70346733685447 90.38602300304865 H 0.0 **** 0.06
12091 C 13.8307582660359 95.105345972534 11.89142958022433 C 0.0 **** -0.24
12092 H 14.16040543087874 94.12026810943966 11.561035743527707 H 0.0 **** 0.06
12093 H 13.576487522552767 95.71357507478837 11.02261570666191 H 0.0 **** 0.06
12094 H 14.63231695340879 95.58762261596519 12.450176034859037 H 0.0 **** 0.06
12095 H 12.953795750262259 95.00002150095051 12.530480638850818 H 0.0 **** 0.06
12096 C 5.228946631689041 6.796589391255736 105.80660224738801 C 0.0 **** -0.24
12097 H 6.100792199379896 6.899762812210497 106.45185354194379 H 0.0 **** 0.06
12098 H 4.719354723014419 7.75666018149775 105.72727459442709 H 0.0 **** 0.06
12099 H 4.548430714387223 6.058460070224498 106.23229107278553 H 0.0 **** 0.06
12100 H 5.546090052175998 6.470223941582219 104.81677432643413 H 0.0 **** 0.06
12101 C 65.89682626991831 89.71701846974064 22.123783769357686 C 0.0 **** -0.24
12102 H 65.8946980761228 90.69738167324813 22.599435064414592 H 0.0 **** 0.06
12103 H 66.26147609988678 89.8112753634356 21.100111969169973 H 0.0 **** 0.06
12104 H 64.88327894664344 89.31575537362664 22.113130220264537 H 0.0 **** 0.06
12105 H 66.54878929834074 89.04522125106695 22.68115831542292 H 0.0 **** 0.06
12106 C 26.04048380247059 23.203417903773342 75.11222919084203 C 0.0 **** -0.24
12107 H 26.9179627020186 22.78259581737241 75.60310114956958 H 0.0 **** 0.06
12108 H 26.041441711733853 24.288027198451957 75.23327314675508 H 0.0 **** 0.06
12109 H 25.13771207411247 22.788406827226424 75.56212120187325 H 0.0 **** 0.06
12110 H 26.064287206995573 22.95586488491611 74.05089199570438 H 0.0 **** 0.06
12111 C 16.92455880929697 91.77294620045384 85.29580353204312 C 0.0 **** -0.24
12112 H 15.956915651313693 91.73442566506118 85.79669039474078 H 0.0 **** 0.06
12113 H 17.195729972695403 92.81358819652237 85.11096767186797 H 0.0 **** 0.06
12114 H 16.86549521688812 91.23911916437491 84.34758789583452 H 0.0 **** 0.06
12115 H 17.679436819139767 91.30749123850478 85.92867914861188 H 0.0 **** 0.06
12116 C 49.61945352278113 38.76352278540639 37.08004592152091 C 0.0 **** -0.24
12117 H 50.37761156131331 39.037832322724036 36.34657718035363 H 0.0 **** 0.06
12118 H 49.89939718875754 39.157591605881684 38.05715136876527 H 0.0 **** 0.06
12119 H 49.54306389129097 37.67760453269209 37.13350520336009 H 0.0 **** 0.06
12120 H 48.65832576753902 39.18079380405349 36.7816904182848 H 0.0 **** 0.06
12121 C 34.45068241277881 44.90169634553151 14.50775734928358 C 0.0 **** -0.24
12122 H 34.234088670454895 44.202010743235924 13.701616634717666 H 0.0 **** 0.06
12123 H 33.520241125861475 45.18990080455785 14.998169413490913 H 0.0 **** 0.06
12124 H 34.936643543097844 45.788208067883815 14.099253347250777 H 0.0 **** 0.06
12125 H 35.11151255178346 44.42642711463874 15.232930042468734 H 0.0 **** 0.06
12126 C 2.5543198784926915 76.07924704852672 21.47639367120712 C 0.0 **** -0.24
12127 H 2.254164606307313 76.25677490164486 20.44379191141371 H 0.0 **** 0.06
12128 H 1.9272420069199256 75.29841168934564 21.90809991029039 H 0.0 **** 0.06
12129 H 2.4380374508252203 76.99817927743663 22.050811357197688 H 0.0 **** 0.06
12130 H 3.5969576595523165 75.76356361037796 21.502396020002692 H 0.0 **** 0.06
12131 C 84.9624504169742 75.51832878129514 1.1386571719589824 C 0.0 **** -0.24
12132 H 85.88499959959131 75.28246543753602 1.667374609169201 H 0.0 **** 0.06
12133 H 84.12015388671307 75.04911976546384 1.6497181489151558 H 0.0 **** 0.06
12134 H 85.0228644614757 75.14195438321599 0.11749597692860902 H 0.0 **** 0.06
12135 H 84.81979192988558 76.59882592172028 1.1196776681954077 H 0.0 **** 0.06
12136 C 22.094821590837938 92.91611366422836 37.51139116966888 C 0.0 **** -0.24
12137 H 22.806081779070638 92.09580996957413 37.40929033311461 H 0.0 **** 0.06
12138 H 21.53023032064482 92.79467153616213 38.43541941630744 H 0.0 **** 0.06
12139 H 21.410854493251236 92.91013557549147 36.66267271986494 H 0.0 **** 0.06
12140 H 22.634425241895258 93.86330229281407 37.53633864602938 H 0.0 **** 0.06
12141 C 19.676535497378385 23.113004976109465 29.735815204885746 C 0.0 **** -0.24
12142 H 19.094270659411173 23.137847831410284 30.656822920839602 H 0.0 **** 0.06
12143 H 20.56731614127125 22.502983349103005 29.88533839492201 H 0.0 **** 0.06
12144 H 19.970944554264204 24.127249259530657 29.465242485553105 H 0.0 **** 0.06
12145 H 19.07171805587811 22.685461878748868 28.93617435417317 H 0.0 **** 0.06
12146 C 2.9681434309334236 71.4634946098871 110.1838389003804 C 0.0 **** -0.24
12147 H 3.8399036984561405 71.76728851389078 109.60433132424473 H 0.0 **** 0.06
12148 H 2.0803994222856375 71.50094433517552 109.55170214733236 H 0.0 **** 0.06
12149 H 2.8414726557739414 72.13831618153199 111.03029036576642 H 0.0 **** 0.06
12150 H 3.111670120996024 70.44565662495745 110.54872071606994 H 0.0 **** 0.06
12151 C 75.50200933615376 33.991797556818796 31.147991221062767 C 0.0 **** -0.24
12152 H 75.39069245516636 32.9430236621215 30.87076089173226 H 0.0 **** 0.06
12153 H 74.92750508400677 34.19074232707667 32.05342185982934 H 0.0 **** 0.06
12154 H 75.13510918522249 34.6222157313273 30.33806163611723 H 0.0 **** 0.06
12155 H 76.55465196748165 34.20925958039676 31.33016287754765 H 0.0 **** 0.06
12156 C 100.39174621525706 103.31171528870937 2.1390208036720537 C 0.0 **** -0.24
12157 H 101.16973323532852 103.50710859333752 1.4016583847850228 H 0.0 **** 0.06
12158 H 99.48331943820273 103.84675091225378 1.85886281433568 H 0.0 **** 0.06
12159 H 100.72605197669452 103.65194198818662 3.1191785403204335 H 0.0 **** 0.06
12160 H 100.18645801041413 102.24210259090043 2.1750087408029515 H 0.0 **** 0.06
12161 C 43.72758031723801 10.046476571258097 22.400175897475894 C 0.0 **** -0.24
12162 H 43.109448722743764 10.387056330219238 23.2304526333805 H 0.0 **** 0.06
12163 H 43.79144390259228 8.95795989957702 22.418027737856807 H 0.0 **** 0.06
12164 H 44.72747797005094 10.470402833984778 22.49449956734769 H 0.0 **** 0.06
12165 H 43.283706404977266 10.369641638291014 21.45920780034453 H 0.0 **** 0.06
12166 C 64.54796572023307 90.06497138220084 90.28741631503561 C 0.0 **** -0.24
12167 H 65.02052839106992 89.11795737101335 90.02609901100853 H 0.0 **** 0.06
12168 H 65.30551312905425 90.84720026085006 90.34011032238939 H 0.0 **** 0.06
12169 H 64.05390321109542 89.97009073384223 91.25415185801441 H 0.0 **** 0.06
12170 H 63.810711217762844 90.32428273991218 89.5265804402731 H 0.0 **** 0.06
12171 C 56.370393563113225 106.85983777372608 31.588115491142247 C 0.0 **** -0.24
12172 H 56.7110574275693 107.81914418212129 31.979345784404373 H 0.0 **** 0.06
12173 H 55.30535117546356 106.9170861942295 31.363827612851786 H 0.0 **** 0.06
12174 H 56.54513668051516 106.08323092092154 32.33207740019677 H 0.0 **** 0.06
12175 H 56.92191788091071 106.62208108857732 30.67883314383539 H 0.0 **** 0.06
12176 C 21.862341201047343 107.44276120134887 102.31802959457269 C 0.0 **** -0.24
12177 H 20.9753554269887 107.82000957163775 102.82691134056383 H 0.0 **** 0.06
12178 H 22.416468121070864 108.27621632868441 101.8869848069918 H 0.0 **** 0.06
12179 H 21.562288765854873 106.75635874617677 101.52602646651164 H 0.0 **** 0.06
12180 H 22.495289709023723 106.91737452004584 103.03387511057274 H 0.0 **** 0.06
12181 C 72.77301287174834 23.328489246108404 85.39833919571583 C 0.0 **** -0.24
12182 H 73.16279117516294 22.94018417556316 84.45754072450103 H 0.0 **** 0.06
12183 H 71.71425957771174 23.564464100755146 85.28286557813743 H 0.0 **** 0.06
12184 H 73.31909229705275 24.2308768200985 85.67262124208685 H 0.0 **** 0.06
12185 H 72.89563117348644 22.578026428934294 86.1790030298609 H 0.0 **** 0.06
12186 C 53.14602643187288 80.27170388676205 42.04275618457092 C 0.0 **** -0.24
12187 H 52.138795327103765 80.57906711252213 41.759132935351346 H 0.0 **** 0.06
12188 H 53.12530948164621 79.23817585630428 42.38883184660408 H 0.0 **** 0.06
12189 H 53.511071956742796 80.91592366479836 42.84223998141891 H 0.0 **** 0.06
12190 H 53.80603315072011 80.35310469565434 41.17899824293431 H 0.0 **** 0.06
12191 C 44.826107491986704 28.046401292414444 81.55861874716595 C 0.0 **** -0.24
12192 H 45.898975905696375 28.238311793709755 81.54400856241342 H 0.0 **** 0.06
12193 H 44.64779186513044 27.003341072047277 81.81744219708759 H 0.0 **** 0.06
12194 H 44.40749123012631 28.254230832481866 80.57385073169021 H 0.0 **** 0.06
12195 H 44.35184161633413 28.6911689374152 82.2988358225418 H 0.0 **** 0.06
12196 C 88.62132078180593 71.11239256203532 40.23861998899237 C 0.0 **** -0.24
12197 H 87.80768793750006 71.65668102572995 39.76016691120836 H 0.0 **** 0.06
12198 H 89.53386301142287 71.23607880620973 39.65519720952656 H 0.0 **** 0.06
12199 H 88.36688559681875 70.05327806413948 40.29321867125006 H 0.0 **** 0.06
12200 H 88.77604944821961 71.50102893712815 41.24444873562007 H 0.0 **** 0.06
12201 C 36.305701891534795 52.50756193357961 15.489638728028858 C 0.0 **** -0.24
12202 H 36.627412908786596 51.74036685274481 14.784959021268072 H 0.0 **** 0.06
12203 H 35.26575834894231 52.3318367889793 15.767103854153625 H 0.0 **** 0.06
12204 H 36.39762206084089 53.48951363644812 15.024450253780735 H 0.0 **** 0.06
12205 H 36.93230725902197 52.4678402472278 16.381380113649104 H 0.0 **** 0.06
12206 C 16.77648222766706 83.21346311646828 50.65460899630921 C 0.0 **** -0.24
12207 H 17.44684677391882 83.3620125609613 51.50150757295728 H 0.0 **** 0.06
12208 H 16.218463356068753 84.13196168426414 50.46805032330991 H 0.0 **** 0.06
12209 H 16.081333231185056 82.40520677165323 50.87897749377413 H 0.0 **** 0.06
12210 H 17.35968034183236 82.95680293275838 49.7704493823681 H 0.0 **** 0.06
12211 C 88.28113358819084 17.646633573608312 34.38773216812169 C 0.0 **** -0.24
12212 H 88.1029012939496 18.62678025800531 33.94563438686308 H 0.0 **** 0.06
12213 H 88.16859528381613 17.711408108918448 35.47011571248308 H 0.0 **** 0.06
12214 H 89.2922886014095 17.31862837595949 34.146197751684724 H 0.0 **** 0.06
12215 H 87.56226777241082 16.932102793777148 33.98891096909546 H 0.0 **** 0.06
12216 C 54.26349348703181 72.58716502200126 82.76807790179305 C 0.0 **** -0.24
12217 H 53.24840720904368 72.19633299847494 82.7009147630962 H 0.0 **** 0.06
12218 H 54.92503361462006 71.81371013261914 83.15754022041153 H 0.0 **** 0.06
12219 H 54.27745814755185 73.44845766100909 83.43607544443927 H 0.0 **** 0.06
12220 H 54.602429037911755 72.89110239826816 81.77694846001106 H 0.0 **** 0.06
12221 C 76.05208838763491 57.56484434357071 1.4121895221024516 C 0.0 **** -0.24
12222 H 76.1956744218798 57.08106819578035 0.4458306645056638 H 0.0 **** 0.06
12223 H 76.72143019997654 57.11495464006566 2.145846494627307 H 0.0 **** 0.06
12224 H 75.01895944421302 57.43377038208621 1.734347783971856 H 0.0 **** 0.06
12225 H 76.27248057524355 58.628235349026454 1.3223532720729878 H 0.0 **** 0.06
12226 C 23.88123859464855 57.99636275484803 50.15914674146557 C 0.0 **** -0.24
12227 H 24.68170020440124 57.27063360588963 50.303338110796616 H 0.0 **** 0.06
12228 H 22.920001703078242 57.5210170444557 50.353923059008025 H 0.0 **** 0.06
12229 H 23.904820134637987 58.363767771389355 49.132840630213515 H 0.0 **** 0.06
12230 H 24.0198563214484 58.83127470416643 50.8452894695583 H 0.0 **** 0.06
12231 C 80.27555252371161 28.242132445657376 91.15536979339291 C 0.0 **** -0.24
12232 H 80.16064080928157 27.4156859294352 91.85807832599156 H 0.0 **** 0.06
12233 H 79.30363583680668 28.702010912757657 90.97401785362788 H 0.0 **** 0.06
12234 H 80.68067685042871 27.864760615077614 90.21602877272912 H 0.0 **** 0.06
12235 H 80.95672579046902 28.982764131225053 91.57468641797837 H 0.0 **** 0.06
12236 C 49.553553145480976 39.985806702636125 109.59431839008177 C 0.0 **** -0.24
12237 H 49.65927947436671 40.447649243395944 108.61277973457116 H 0.0 **** 0.06
12238 H 48.56520854403277 40.21125865624458 109.99652376493749 H 0.0 **** 0.06
12239 H 50.31734467825686 40.37919725143627 110.26530804375794 H 0.0 **** 0.06
12240 H 49.670997376167065 38.906705503619776 109.50190020496032 H 0.0 **** 0.06
12241 C 18.049581663532933 45.19939995005077 34.246175347028895 C 0.0 **** -0.24
12242 H 19.00662678345134 45.21473075864578 33.72357282510552 H 0.0 **** 0.06
12243 H 17.69125830488329 44.17265824501838 34.31544682666441 H 0.0 **** 0.06
12244 H 17.32682390148412 45.80170539865242 33.69530138556493 H 0.0 **** 0.06
12245 H 18.17617843767863 45.609937792475854 35.2480584142192 H 0.0 **** 0.06
12246 C 33.64138466351858 59.543897635713506 29.06244999614549 C 0.0 **** -0.24
12247 H 34.337545707374744 59.54794778668479 29.901457239006945 H 0.0 **** 0.06
12248 H 33.02148794842725 58.64877708192708 29.10907582254599 H 0.0 **** 0.06
12249 H 34.20172200837399 59.55063428373188 28.1267975617408 H 0.0 **** 0.06
12250 H 33.00698981298481 60.429228999229366 29.11210192371231 H 0.0 **** 0.06
12251 C 7.002993544996798 28.0784969665254 98.17903975130741 C 0.0 **** -0.24
12252 H 6.674752203692492 27.042852211449514 98.26894141489396 H 0.0 **** 0.06
12253 H 6.288002137232553 28.72994695901965 98.68333729943782 H 0.0 **** 0.06
12254 H 7.062654004928817 28.350147955077603 97.12530018076455 H 0.0 **** 0.06
12255 H 7.984712822205665 28.190247203767036 98.63954804481625 H 0.0 **** 0.06
12256 C 20.982969337395673 86.27233795084692 99.63393709864772 C 0.0 **** -0.24
12257 H 20.48281677377912 87.19092477912113 99.94118682866352 H 0.0 **** 0.06
12258 H 21.267100963951236 86.34634870245014 98.58419791096867 H 0.0 **** 0.06
12259 H 20.307357544725676 85.42798271106403 99.76867995855656 H 0.0 **** 0.06
12260 H 21.875555963655444 86.12431256646067 100.24270502504072 H 0.0 **** 0.06
12261 C 15.044781136084623 83.32296289004856 108.51074399459175 C 0.0 **** -0.24
12262 H 14.500264066866222 82.3926112025124 108.6727428846397 H 0.0 **** 0.06
12263 H 14.403378625355657 84.03221929858773 107.98669347542425 H 0.0 **** 0.06
12264 H 15.933097850267131 83.12490067907166 107.9102778860551 H 0.0 **** 0.06
12265 H 15.342597639660355 83.74256960137092 109.47160260298884 H 0.0 **** 0.06
12266 C 35.42706010736555 90.99213018380055 98.7498200123954 C 0.0 **** -0.24
12267 H 35.43632107113024 91.10365846038246 99.83422373224171 H 0.0 **** 0.06
12268 H 34.48926328275547 91.37920750821098 98.35301663010466 H 0.0 **** 0.06
12269 H 35.5227093189273 89.93611512789619 98.49388203513648 H 0.0 **** 0.06
12270 H 36.261286415548 91.54668854936881 98.32017688647728 H 0.0 **** 0.06
12271 C 15.660592984151549 46.730930124211625 57.737386858008335 C 0.0 **** -0.24
12272 H 16.27542756026537 46.291635611023935 58.52246931796799 H 0.0 **** 0.06
12273 H 14.615714035654378 46.721890865947756 58.04686380838098 H 0.0 **** 0.06
12274 H 15.773970156135135 46.15181590624971 56.820752204223936 H 0.0 **** 0.06
12275 H 15.978522259692852 47.75882274280542 57.559919891569905 H 0.0 **** 0.06
12276 C 100.98741193277897 51.74786961297633 84.68509298710512 C 0.0 **** -0.24
12277 H 100.9297140039788 52.82855768914379 84.81772027758984 H 0.0 **** 0.06
12278 H 99.99006671594941 51.351035591381276 84.49525354139519 H 0.0 **** 0.06
12279 H 101.3950688901408 51.29194500535198 85.58756421065391 H 0.0 **** 0.06
12280 H 101.63598776465915 51.52142089939167 83.83865390684548 H 0.0 **** 0.06
12281 C 32.00551415849519 51.054487054658814 20.720630520114497 C 0.0 **** -0.24
12282 H 33.062738893257176 50.95585752040524 20.473078831168806 H 0.0 **** 0.06
12283 H 31.438688971916292 51.26366952039427 19.813101642592216 H 0.0 **** 0.06
12284 H 31.873258187754715 51.872174941625325 21.42827841812891 H 0.0 **** 0.06
12285 H 31.64908370365103 50.12570157367977 21.166733224253534 H 0.0 **** 0.06
12286 C 46.09416080036226 49.27273958887878 67.58830337022242 C 0.0 **** -0.24
12287 H 46.256212461307285 48.310314779670875 67.10466777053475 H 0.0 **** 0.06
12288 H 46.64589884778454 49.30398805195949 68.52880827971846 H 0.0 **** 0.06
12289 H 45.03046706438056 49.40440566411496 67.78615028948101 H 0.0 **** 0.06
12290 H 46.444459971034064 50.0714161558999 66.93465900885997 H 0.0 **** 0.06
12291 C 16.49328681021621 38.16514696654979 100.24841561122527 C 0.0 **** -0.24
12292 H 17.02592663785414 39.094005524855355 100.45125126018351 H 0.0 **** 0.06
12293 H 16.279371898848684 38.09374050657179 99.18224290766449 H 0.0 **** 0.06
12294 H 15.55901373123189 38.15191239375367 100.80945694391009 H 0.0 **** 0.06
12295 H 17.111413507838684 37.31950908235046 100.55223917214997 H 0.0 **** 0.06
12296 C 67.00376549694579 102.5572943180159 4.181445728349081 C 0.0 **** -0.24
12297 H 66.27244501075495 102.9920053085178 3.50050490721493 H 0.0 **** 0.06
12298 H 67.11066839250964 103.19762829150044 5.057257309213721 H 0.0 **** 0.06
12299 H 67.96510541868037 102.47180305265718 3.674888200258115 H 0.0 **** 0.06
12300 H 66.66721086261293 101.56910333595106 4.493043596732063 H 0.0 **** 0.06
12301 C 68.11061902830812 85.37301729987911 18.84352086551202 C 0.0 **** -0.24
12302 H 67.15666815898732 85.19898582911168 18.345152982408166 H 0.0 **** 0.06
12303 H 68.70327656523418 84.45807743497954 18.824551146020397 H 0.0 **** 0.06
12304 H 67.9319729458501 85.66934448008476 19.87661159525591 H 0.0 **** 0.06
12305 H 68.65066645732139 86.16668147240176 18.325543283419208 H 0.0 **** 0.06
12306 C 45.5828332976437 69.06979323792088 39.86969065117404 C 0.0 **** -0.24
12307 H 44.54749950959064 69.35901230628096 39.68753401010423 H 0.0 **** 0.06
12308 H 45.61495768228039 68.30020928656614 40.641131713802736 H 0.0 **** 0.06
12309 H 46.14925594015011 69.94071258920353 40.20080037460838 H 0.0 **** 0.06
12310 H 46.019028518152794 68.68086482114671 38.94921784702973 H 0.0 **** 0.06
12311 C 110.52690313367253 0.06550125776034577 0.5998441447369629 C 0.0 **** -0.24
12312 H 110.13795115508212 -0.7375635432040326 1.2261060951861538 H 0.0 **** 0.06
12313 H 111.4739486004886 0.4180583471245427 1.0084822707580088 H 0.0 **** 0.06
12314 H 109.81137772978882 0.8880540572260855 0.5778425971269883 H 0.0 **** 0.06
12315 H 110.68306368394325 -0.30716323593705397 -0.41304619741730164 H 0.0 **** 0.06
12316 C 109.76388921302882 110.7904873122568 64.93156212801182 C 0.0 **** -0.24
12317 H 110.12728693933322 111.67351766341753 64.40573303696131 H 0.0 **** 0.06
12318 H 109.57504277928354 109.99178242861238 64.21381544722539 H 0.0 **** 0.06
12319 H 108.83867662809523 111.03466153878405 65.45481199021346 H 0.0 **** 0.06
12320 H 110.5124399055384 110.4626775121563 65.65162409457453 H 0.0 **** 0.06
12321 C 6.815332890010836 13.69738942131778 82.74383844620036 C 0.0 **** -0.24
12322 H 6.922930191917516 13.167381922925244 81.79756544396358 H 0.0 **** 0.06
12323 H 6.290718223804802 13.062088429467053 83.45791677900036 H 0.0 **** 0.06
12324 H 6.245972766998904 14.612820643566067 82.5844382145196 H 0.0 **** 0.06
12325 H 7.8017952678791005 13.946813229529766 83.13454609420009 H 0.0 **** 0.06
12326 C 96.44035873684251 72.10449155195283 88.48141523869396 C 0.0 **** -0.24
12327 H 95.74599262774099 72.91226939332503 88.25004453768315 H 0.0 **** 0.06
12328 H 96.24210703644852 71.73187900599166 89.48603250428971 H 0.0 **** 0.06
12329 H 97.46272892239236 72.47802142387809 88.42704290089796 H 0.0 **** 0.06
12330 H 96.30969184991376 71.29570397581023 87.76146619516317 H 0.0 **** 0.06
12331 C 26.2781052897937 57.194539396265384 74.88206493303773 C 0.0 **** -0.24
12332 H 26.57165803751019 57.168218858215255 73.83167650492794 H 0.0 **** 0.06
12333 H 25.873566980065988 58.1779701798948 75.12171548582316 H 0.0 **** 0.06
12334 H 27.150354843867433 56.99842914227605 75.50605390933686 H 0.0 **** 0.06
12335 H 25.520718688353213 56.4342260381529 75.06626520840766 H 0.0 **** 0.06
12336 C 16.405646210549776 71.4486417913364 80.46200641474627 C 0.0 **** -0.24
12337 H 16.589467486033442 70.66547882675263 81.1970473707755 H 0.0 **** 0.06
12338 H 15.334035641323098 71.63689568171583 80.39165711197239 H 0.0 **** 0.06
12339 H 16.783705602401284 71.13105313196115 79.49088376053444 H 0.0 **** 0.06
12340 H 16.915676961036297 72.36228199359664 80.76921481906697 H 0.0 **** 0.06
12341 C 81.72958092138248 49.47054203491276 27.956657487733274 C 0.0 **** -0.24
12342 H 81.2602316069119 48.50160979928155 27.78353809214596 H 0.0 **** 0.06
12343 H 81.22891734301231 50.2285979798297 27.352566430973788 H 0.0 **** 0.06
12344 H 82.78153883155616 49.41953391841673 27.67674422934678 H 0.0 **** 0.06
12345 H 81.64523549330985 49.73138902975169 29.011104912282732 H 0.0 **** 0.06
12346 C 16.157406597307542 72.5989578243491 25.87781509732372 C 0.0 **** -0.24
12347 H 16.297818352239013 72.77343101296968 24.81072540370448 H 0.0 **** 0.06
12348 H 15.38575794501828 73.26872368152007 26.25729076467718 H 0.0 **** 0.06
12349 H 17.093497513795583 72.78803022233042 26.402578968448722 H 0.0 **** 0.06
12350 H 15.852402004436055 71.56433497814072 26.038860314075606 H 0.0 **** 0.06
12351 C 81.75984692935563 59.167945552073434 67.90344048009362 C 0.0 **** -0.24
12352 H 81.71749196659387 58.83641801325848 68.941436786503 H 0.0 **** 0.06
12353 H 80.75616192620015 59.162150175571014 67.47904852583798 H 0.0 **** 0.06
12354 H 82.40096843131634 58.494679259327995 67.3335988372819 H 0.0 **** 0.06
12355 H 82.16671981194857 60.1782167054007 67.86285263970359 H 0.0 **** 0.06
12356 C 50.38643928550679 16.999787416548557 97.68602451578101 C 0.0 **** -0.24
12357 H 50.63359148381954 17.391652503152812 96.6986186455922 H 0.0 **** 0.06
12358 H 51.27225724807335 16.54037391631772 98.12551006043628 H 0.0 **** 0.06
12359 H 49.59757878923939 16.253033735957573 97.59341884310192 H 0.0 **** 0.06
12360 H 50.044086555271484 17.814000040760448 98.32433565983737 H 0.0 **** 0.06
12361 C 47.68906025933044 45.34122873850811 20.77521328321805 C 0.0 **** -0.24
12362 H 48.5645468362179 44.7164513062975 20.955610648043375 H 0.0 **** 0.06
12363 H 47.32219306773233 45.73347261831066 21.723960856448628 H 0.0 **** 0.06
12364 H 46.90972953064647 44.74481889063185 20.301433153177953 H 0.0 **** 0.06
12365 H 47.96221827789657 46.16892488325968 20.121056194846346 H 0.0 **** 0.06
12366 C 101.26621169102074 20.343748427530272 96.47951324078365 C 0.0 **** -0.24
12367 H 100.66779075861655 19.431728781880025 96.50033142798976 H 0.0 **** 0.06
12368 H 101.40851428798278 20.660121250283396 95.44571587728025 H 0.0 **** 0.06
12369 H 102.23532763410181 20.152109388902858 96.93847775134684 H 0.0 **** 0.06
12370 H 100.74977487817912 21.128140633404996 97.03218636611348 H 0.0 **** 0.06
12371 C 46.37095685283103 49.2785234346953 31.64846714256919 C 0.0 **** -0.24
12372 H 46.66568435537915 49.884804797791986 30.792525971568985 H 0.0 **** 0.06
12373 H 46.49651647761291 48.22230247947865 31.406500414828663 H 0.0 **** 0.06
12374 H 45.325729484903974 49.473634898973486 31.889213936952537 H 0.0 **** 0.06
12375 H 46.994632501525565 49.53216811156216 32.50560819842739 H 0.0 **** 0.06
12376 C 15.874997603513236 1.1891326287719721 55.83038209616487 C 0.0 **** -0.24
12377 H 15.726145977850479 0.8805106008739472 56.86509431014474 H 0.0 **** 0.06
12378 H 16.384215536962543 2.153656867695247 55.80854359053811 H 0.0 **** 0.06
12379 H 14.907998133686604 1.2774806324751466 55.33548779142768 H 0.0 **** 0.06
12380 H 16.48146040364641 0.4462219278353814 55.31282314489607 H 0.0 **** 0.06
12381 C 24.143392199090993 46.141506935703575 103.04496097741276 C 0.0 **** -0.24
12382 H 24.402612557397433 46.95265589289741 102.36429738585126 H 0.0 **** 0.06
12383 H 23.35817739338524 46.473343338051336 103.72392196362756 H 0.0 **** 0.06
12384 H 25.023401102085373 45.85352096334489 103.61897672543003 H 0.0 **** 0.06
12385 H 23.788710526689616 45.28537141085053 102.46995256751498 H 0.0 **** 0.06
12386 C 80.20020529217265 39.19761964325106 28.39619764435779 C 0.0 **** -0.24
12387 H 79.73270770088268 39.17835961882497 27.411826893197848 H 0.0 **** 0.06
12388 H 79.78681960550509 40.02124810630269 28.978210664034613 H 0.0 **** 0.06
12389 H 81.27624659543778 39.33309866692653 28.285137740335763 H 0.0 **** 0.06
12390 H 80.00403229300935 38.25578042584972 28.90966997064566 H 0.0 **** 0.06
12391 C 52.320713922955065 94.81472980327678 95.92515525689532 C 0.0 **** -0.24
12392 H 51.343684268716764 95.17272538245564 96.25246709783099 H 0.0 **** 0.06
12393 H 53.0882443970687 95.18369436676181 96.60564542152035 H 0.0 **** 0.06
12394 H 52.52079882088977 95.17888616668803 94.91735075253439 H 0.0 **** 0.06
12395 H 52.32620896041119 93.72479664573449 95.92564771659444 H 0.0 **** 0.06
12396 C 46.47395136312829 51.11200552085513 97.34808670495619 C 0.0 **** -0.24
12397 H 47.102958056075394 50.941784203891714 96.47402032239881 H 0.0 **** 0.06
12398 H 46.46156904076013 52.176942529912644 97.5845199498568 H 0.0 **** 0.06
12399 H 46.87244305737969 50.55539598271552 98.19581595467264 H 0.0 **** 0.06
12400 H 45.459485611430935 50.77458510416134 97.13653903922196 H 0.0 **** 0.06
12401 C 1.5605623765580212 58.24222957259471 74.137642601599 C 0.0 **** -0.24
12402 H 2.188249896377486 57.403193472971395 74.43722149534938 H 0.0 **** 0.06
12403 H 0.8261865108196176 58.44406881169607 74.91947692069431 H 0.0 **** 0.06
12404 H 1.0450402325715222 57.997442031952005 73.20939065722303 H 0.0 **** 0.06
12405 H 2.182483615568251 59.12511428019508 73.9873284781446 H 0.0 **** 0.06
12406 C 66.78028269721466 49.908526773639494 28.807186291946522 C 0.0 **** -0.24
12407 H 67.73600473637015 50.432706154990974 28.808232811290566 H 0.0 **** 0.06
12408 H 66.38090602055973 49.88485523111641 27.792737321514608 H 0.0 **** 0.06
12409 H 66.08027950293138 50.42822717674464 29.46110657056704 H 0.0 **** 0.06
12410 H 66.9253048011563 48.88907189694201 29.165064889132395 H 0.0 **** 0.06
12411 C 90.54688165544201 80.55288279617685 33.46587624037407 C 0.0 **** -0.24
12412 H 90.8939466882033 81.5844367875305 33.41010047564403 H 0.0 **** 0.06
12413 H 89.93787482561845 80.42246521524926 34.36042510335554 H 0.0 **** 0.06
12414 H 91.40603350836614 79.88345339659328 33.51010418370515 H 0.0 **** 0.06
12415 H 89.9512161538479 80.32183557523904 32.58329849564774 H 0.0 **** 0.06
12416 C 50.06561353027312 19.381840083942222 11.332666367105446 C 0.0 **** -0.24
12417 H 50.75035749160653 19.820540298692322 12.058312665472386 H 0.0 **** 0.06
12418 H 49.162087967647324 19.044926263050712 11.841637297411467 H 0.0 **** 0.06
12419 H 50.54754289190097 18.532790876801243 10.846717475164581 H 0.0 **** 0.06
12420 H 49.80385936973467 20.12853018921686 10.583143608945392 H 0.0 **** 0.06
12421 C 105.77627783688436 13.59133039151699 102.83496672371388 C 0.0 **** -0.24
12422 H 105.4312688464738 13.133458108828691 103.76114781830529 H 0.0 **** 0.06
12423 H 105.4906282230827 12.962562049570451 101.9907342432437 H 0.0 **** 0.06
12424 H 106.86091019070601 13.6919273055002 102.86145458504065 H 0.0 **** 0.06
12425 H 105.32181603188197 14.576314170172424 102.72437649624659 H 0.0 **** 0.06
12426 C 34.352600279960825 6.391203575823043 87.55867744479282 C 0.0 **** -0.24
12427 H 34.17774402647609 7.463091798231199 87.64266306350132 H 0.0 **** 0.06
12428 H 33.5812312122539 5.945484431453901 86.93006391159099 H 0.0 **** 0.06
12429 H 34.32103554209817 5.939159902324393 88.5501460165522 H 0.0 **** 0.06
12430 H 35.33200562583974 6.217507012510852 87.1113817111516 H 0.0 **** 0.06
12431 C 10.077612136350353 30.963524570845955 2.1086061876334146 C 0.0 **** -0.24
12432 H 9.606815903882122 30.38865174799973 1.3110913729705116 H 0.0 **** 0.06
12433 H 10.596192982265308 30.28599879498166 2.7882013224455537 H 0.0 **** 0.06
12434 H 9.313329734892562 31.513891957502175 2.658060393188368 H 0.0 **** 0.06
12435 H 10.792155743291858 31.664552999066835 1.6774910094191648 H 0.0 **** 0.06
12436 C 52.05736122794548 40.46079511992832 32.62260945210943 C 0.0 **** -0.24
12437 H 53.03863194061651 39.985791223206036 32.63631524707512 H 0.0 **** 0.06
12438 H 52.16998253232157 41.53171205365064 32.788293003210725 H 0.0 **** 0.06
12439 H 51.43613169767312 40.033808409750236 33.41009276334134 H 0.0 **** 0.06
12440 H 51.58466393469976 40.28968785406863 31.655244306423697 H 0.0 **** 0.06
12441 C 9.531169801598281 23.20744571098352 41.46498371609698 C 0.0 **** -0.24
12442 H 9.126767183209154 22.221632638348296 41.23521896080746 H 0.0 **** 0.06
12443 H 9.793699800700608 23.254869966402367 42.52222432867961 H 0.0 **** 0.06
12444 H 8.782554450187462 23.9677581374779 41.241820521212446 H 0.0 **** 0.06
12445 H 10.42066502736597 23.38541018872317 40.86062651981325 H 0.0 **** 0.06
12446 C 54.39491332349064 33.0174885037562 49.32651351662625 C 0.0 **** -0.24
12447 H 55.43246489391558 32.72229414821567 49.48138036114429 H 0.0 **** 0.06
12448 H 54.34555521892486 34.09141791773675 49.14735685116871 H 0.0 **** 0.06
12449 H 53.81134148708301 32.7695425752149 50.213622588254054 H 0.0 **** 0.06
12450 H 53.9907130347427 32.48619477180736 48.46494644377599 H 0.0 **** 0.06
12451 C 102.26772183545205 28.882441827006936 31.30961235886798 C 0.0 **** -0.24
12452 H 102.85508548652395 28.50009519188987 32.14508454805997 H 0.0 **** 0.06
12453 H 101.22545074052296 28.59130843142575 31.43562420486913 H 0.0 **** 0.06
12454 H 102.65159600224388 28.47011214007979 30.376922408205587 H 0.0 **** 0.06
12455 H 102.34051725612692 29.969607009996245 31.283279598492925 H 0.0 **** 0.06
12456 C 76.95431708556771 2.4180857551663877 16.085930294654492 C 0.0 **** -0.24
12457 H 78.01314209586661 2.6743164624096494 16.093007671879448 H 0.0 **** 0.06
12458 H 76.66746577399857 2.086535076301672 15.087666684070268 H 0.0 **** 0.06
12459 H 76.36659241834624 3.2947224854885775 16.360669362302925 H 0.0 **** 0.06
12460 H 76.76939772840234 1.6177862498092708 16.803095763716115 H 0.0 **** 0.06
12461 C 103.59276746542662 76.44631355115334 79.2163868603029 C 0.0 **** -0.24
12462 H 103.59342247598977 77.3321633855117 78.58172998890646 H 0.0 **** 0.06
12463 H 103.07443349051124 75.63410426822134 78.70704543564453 H 0.0 **** 0.06
12464 H 103.08402050098596 76.67177911939443 80.15351573283827 H 0.0 **** 0.06
12465 H 104.62066176404466 76.14793062861547 79.42382287609185 H 0.0 **** 0.06
12466 C 35.92267688394553 45.64696260249073 79.53887073822163 C 0.0 **** -0.24
12467 H 35.93095251001979 44.82107631302685 78.82805356887172 H 0.0 **** 0.06
12468 H 35.88459417461745 45.25126369952751 80.55465659410984 H 0.0 **** 0.06
12469 H 35.048516314680356 46.27270387595209 79.35893494753985 H 0.0 **** 0.06
12470 H 36.82706776040581 46.24278079788159 79.4147435299884 H 0.0 **** 0.06
12471 C 48.1095158263906 46.7857322660721 47.46951256962723 C 0.0 **** -0.24
12472 H 49.08860937151763 47.20575289145171 47.240922991304615 H 0.0 **** 0.06
12473 H 47.764576162048996 47.168054000862014 48.43023336810427 H 0.0 **** 0.06
12474 H 48.18233257803066 45.69861782739645 47.51490754620232 H 0.0 **** 0.06
12475 H 47.40208574197882 47.069166211129016 46.68953714751717 H 0.0 **** 0.06
12476 C 103.07625477626257 93.37718784511355 17.23184485627894 C 0.0 **** -0.24
12477 H 104.11287899683612 93.39013495682852 17.567820013076386 H 0.0 **** 0.06
12478 H 103.04484458770736 93.19926428680253 16.15688516251339 H 0.0 **** 0.06
12479 H 102.60971621164855 94.3373796606443 17.455172524179318 H 0.0 **** 0.06
12480 H 102.53650000683331 92.58357164521732 17.749011052081244 H 0.0 **** 0.06
12481 C 15.569575429151257 45.398391155218405 106.25282594292844 C 0.0 **** -0.24
12482 H 16.303236900027173 45.22155582280129 105.46662824531853 H 0.0 **** 0.06
12483 H 16.013013231199693 45.17084229733712 107.22265180811229 H 0.0 **** 0.06
12484 H 14.701997149044956 44.757800452934134 106.09029200690844 H 0.0 **** 0.06
12485 H 15.258550030580665 46.442631086168774 106.23128815127478 H 0.0 **** 0.06
12486 C 13.412895200951084 58.09094683589376 91.71192244905899 C 0.0 **** -0.24
12487 H 12.328902976825361 57.979618981974795 91.75552016303168 H 0.0 **** 0.06
12488 H 13.799359721982881 58.27292865259227 92.71507824897816 H 0.0 **** 0.06
12489 H 13.66508840634512 58.9327523431125 91.06776038815406 H 0.0 **** 0.06
12490 H 13.856233844258028 57.180449756691814 91.31041082943909 H 0.0 **** 0.06
12491 C 88.45508145414698 2.146649055802243 22.72059076648243 C 0.0 **** -0.24
12492 H 89.1246007280098 2.8307173103184766 23.24155551778268 H 0.0 **** 0.06
12493 H 87.45977571995462 2.2046933660878096 23.163786211027972 H 0.0 **** 0.06
12494 H 88.83349736192997 1.128886416755563 22.809192584215648 H 0.0 **** 0.06
12495 H 88.40042782337056 2.4236751290971483 21.667730721513433 H 0.0 **** 0.06
12496 C 10.745204406763634 2.1076783909459493 57.6387837414417 C 0.0 **** -0.24
12497 H 9.68972930247827 1.8383335401004786 57.683632505479956 H 0.0 **** 0.06
12498 H 10.842829986022508 3.1384946029897662 57.297692942965675 H 0.0 **** 0.06
12499 H 11.259987567434194 1.444405536754914 56.94263919974798 H 0.0 **** 0.06
12500 H 11.187662298708915 2.008516327558766 58.62952668697666 H 0.0 **** 0.06
12501 C 6.670853666531485 57.89150239732783 56.99477014061552 C 0.0 **** -0.24
12502 H 6.294609811202264 57.72291496857497 58.00378776768508 H 0.0 **** 0.06
12503 H 5.994008763216144 58.56029348157267 56.46241290193056 H 0.0 **** 0.06
12504 H 6.731674818848276 56.93967278963851 56.46625527554317 H 0.0 **** 0.06
12505 H 7.661530128154098 58.34167821635276 57.04601994904978 H 0.0 **** 0.06
12506 C 65.11081065949608 104.6888966544687 9.162054097899784 C 0.0 **** -0.24
12507 H 65.88958598840537 105.25499994052468 8.651217745344468 H 0.0 **** 0.06
12508 H 64.91288793918653 103.76841501781912 8.61333207567992 H 0.0 **** 0.06
12509 H 64.20015879432665 105.28698074018591 9.211312648271019 H 0.0 **** 0.06
12510 H 65.44099627758908 104.44708286644459 10.171832902097094 H 0.0 **** 0.06
12511 C 8.699046965367643 25.88294699438279 71.71716084776347 C 0.0 **** -0.24
12512 H 9.199112340233853 25.673020063086483 72.66312917747445 H 0.0 **** 0.06
12513 H 8.84092928632657 26.931902585852242 71.45722373798338 H 0.0 **** 0.06
12514 H 7.633562348526198 25.67408379048129 71.81679749071907 H 0.0 **** 0.06
12515 H 9.122242651656848 25.253218424024 70.93519344342207 H 0.0 **** 0.06
12516 C 109.01531639869133 107.21851985587017 74.7591794743492 C 0.0 **** -0.24
12517 H 108.773690154591 106.15583210380879 74.78072556657628 H 0.0 **** 0.06
12518 H 108.58461586827718 107.70688772852077 75.63405242027994 H 0.0 **** 0.06
12519 H 108.60473761934698 107.66576334176861 73.85422089277421 H 0.0 **** 0.06
12520 H 110.09704161506134 107.34539713395785 74.76847218243284 H 0.0 **** 0.06
12521 C 59.83248927288369 90.85479581731444 73.21667785032344 C 0.0 **** -0.24
12522 H 60.09215093389412 91.65411110832265 73.91078635755414 H 0.0 **** 0.06
12523 H 58.96572325340736 91.15337177561585 72.62751593009722 H 0.0 **** 0.06
12524 H 59.59729097482153 89.95000031821104 73.77718529821891 H 0.0 **** 0.06
12525 H 60.67548764989647 90.6617546720583 72.55357185566413 H 0.0 **** 0.06
12526 C 62.64499190135223 63.414741854184285 52.19413864664347 C 0.0 **** -0.24
12527 H 62.35078648554179 62.64546805204037 51.4793479214232 H 0.0 **** 0.06
12528 H 62.2841996025565 64.3848425329094 51.85304291605411 H 0.0 **** 0.06
12529 H 63.730653977453755 63.438310477475085 52.27554500253771 H 0.0 **** 0.06
12530 H 62.212149826602285 63.188462459491745 53.16946074286716 H 0.0 **** 0.06
12531 C 0.27003000165180424 45.69807130406707 48.12256508173209 C 0.0 **** -0.24
12532 H 1.2225978335801102 45.53480793210599 48.62580785423103 H 0.0 **** 0.06
12533 H 0.4143180928167709 45.632882953524586 47.043507518663205 H 0.0 **** 0.06
12534 H -0.11269978822319615 46.685549518067205 48.38006344377902 H 0.0 **** 0.06
12535 H -0.4425522737787304 44.93742719018553 48.44087427573402 H 0.0 **** 0.06
12536 C 103.67343808101191 43.72775191439729 56.63705114159812 C 0.0 **** -0.24
12537 H 102.93490801134001 43.99261765082167 55.88040841946986 H 0.0 **** 0.06
12538 H 104.28914981991431 42.90577150210402 56.27101286483745 H 0.0 **** 0.06
12539 H 103.16401213820888 43.42206187107044 57.55059123844229 H 0.0 **** 0.06
12540 H 104.30627770101694 44.59165488839582 56.844992231222 H 0.0 **** 0.06
12541 C 48.35660988186296 24.272102708925274 14.905653665693151 C 0.0 **** -0.24
12542 H 47.999497248174784 24.15694496735432 15.92959997836364 H 0.0 **** 0.06
12543 H 49.30889596854458 24.802172503438356 14.911813347925658 H 0.0 **** 0.06
12544 H 47.62758725102148 24.83991663380698 14.328537538508854 H 0.0 **** 0.06
12545 H 48.490323937361985 23.288226871657855 14.45577187105313 H 0.0 **** 0.06
12546 C 71.50060970575106 38.83918864484032 19.96703397095973 C 0.0 **** -0.24
12547 H 70.83828787150449 39.39447513827547 20.631123894210475 H 0.0 **** 0.06
12548 H 72.0435500190138 39.537501853115586 19.329899586076582 H 0.0 **** 0.06
12549 H 70.91138784772022 38.16317810851481 19.347995965430087 H 0.0 **** 0.06
12550 H 72.21041775593397 38.263263471928674 20.561302839028194 H 0.0 **** 0.06
12551 C 76.29706907007713 25.253039427348767 12.663868923997569 C 0.0 **** -0.24
12552 H 77.30119711674685 25.01937773313861 12.309059336431218 H 0.0 **** 0.06
12553 H 75.63855377471764 24.405368168007385 12.473396374631491 H 0.0 **** 0.06
12554 H 75.92233749494332 26.13154330373584 12.13873283646646 H 0.0 **** 0.06
12555 H 76.32918290599075 25.4560075266526 13.734182134543602 H 0.0 **** 0.06
12556 C 13.265876619671701 92.50224942990845 26.024420547514573 C 0.0 **** -0.24
12557 H 12.750458605887104 92.56515544446921 25.066695757611168 H 0.0 **** 0.06
12558 H 12.544649847101752 92.61263188099832 26.83384402101433 H 0.0 **** 0.06
12559 H 14.009073141840005 93.29782065182059 26.08900506283808 H 0.0 **** 0.06
12560 H 13.761346810058171 91.53463238559792 26.107530756595114 H 0.0 **** 0.06
12561 C 50.82195789858446 18.693870220573785 8.05508564071188 C 0.0 **** -0.24
12562 H 51.14794048427294 18.14541368136088 7.170404572745156 H 0.0 **** 0.06
12563 H 49.9088472220877 19.244091079462066 7.824958068294492 H 0.0 **** 0.06
12564 H 51.60218696279861 19.393144069291054 8.355690736728207 H 0.0 **** 0.06
12565 H 50.6290659553072 17.992026923079095 8.866078480081171 H 0.0 **** 0.06
12566 C 9.648931199299895 9.56687882237648 85.67041304431733 C 0.0 **** -0.24
12567 H 9.498749634335539 9.12017243257176 86.65279056013703 H 0.0 **** 0.06
12568 H 9.060006138448074 9.023809812461842 84.930979426011 H 0.0 **** 0.06
12569 H 10.704218572618515 9.515365632649544 85.40437426809305 H 0.0 **** 0.06
12570 H 9.331195309679686 10.609706610294676 85.69396906557083 H 0.0 **** 0.06
12571 C 44.68945712041668 97.56142547172473 27.84897696026175 C 0.0 **** -0.24
12572 H 44.92150073751557 98.25978442328046 27.043951282155746 H 0.0 **** 0.06
12573 H 45.612217404100306 97.26524949283304 28.34899499652579 H 0.0 **** 0.06
12574 H 44.20024110084243 96.67988171142372 27.43519199812485 H 0.0 **** 0.06
12575 H 44.024953009495945 98.04304751883299 28.566460919985246 H 0.0 **** 0.06
12576 C 90.62347006846429 13.11506706936575 42.31143226414622 C 0.0 **** -0.24
12577 H 90.42502879702597 14.129574474521064 41.965344800566456 H 0.0 **** 0.06
12578 H 90.9467671412762 13.142429714076442 43.352235820179985 H 0.0 **** 0.06
12579 H 91.40742664981619 12.66909548231466 41.698286913996355 H 0.0 **** 0.06
12580 H 89.71474633688258 12.519036226624863 42.22813677045053 H 0.0 **** 0.06
12581 C 19.572297747229356 90.43027822389095 69.97790803845135 C 0.0 **** -0.24
12582 H 18.779662925780315 90.3162624097023 69.2386143540753 H 0.0 **** 0.06
12583 H 19.140525900492833 90.42442953255849 70.97838620539434 H 0.0 **** 0.06
12584 H 20.090669592892795 91.374661251104 69.81136354128616 H 0.0 **** 0.06
12585 H 20.27974507153715 89.60629022747366 69.8816177097442 H 0.0 **** 0.06
12586 C 26.589278436624596 71.13033279449172 78.13348800349121 C 0.0 **** -0.24
12587 H 25.782438368352985 71.2387503610197 78.85914393338048 H 0.0 **** 0.06
12588 H 27.516172938266834 71.51014207885027 78.56199374088762 H 0.0 **** 0.06
12589 H 26.3454537607291 71.69514696693122 77.23381072864684 H 0.0 **** 0.06
12590 H 26.70947092739044 70.07776440003579 77.87999205335292 H 0.0 **** 0.06
12591 C 90.91147256313164 103.63372305359695 91.92595967151283 C 0.0 **** -0.24
12592 H 91.37290191707501 103.17181122402391 92.79866989533247 H 0.0 **** 0.06
12593 H 91.33178016447727 103.19758620490052 91.01949735920846 H 0.0 **** 0.06
12594 H 91.10518764949649 104.70644113259402 91.9371459925261 H 0.0 **** 0.06
12595 H 89.8360205214779 103.45905365286939 91.94852543898466 H 0.0 **** 0.06
12596 C 16.479438350392627 73.00909501533377 103.80952873015319 C 0.0 **** -0.24
12597 H 15.764608043514386 72.21854865424079 104.0396414310128 H 0.0 **** 0.06
12598 H 17.402570495648774 72.566031572892 103.43555871574662 H 0.0 **** 0.06
12599 H 16.690758010108027 73.58094550653192 104.71375591892316 H 0.0 **** 0.06
12600 H 16.05880396256231 73.67019565938172 103.05128970267921 H 0.0 **** 0.06
12601 C 70.72395802138276 98.11701158327533 34.08380762598708 C 0.0 **** -0.24
12602 H 70.33570858437423 97.0980936385458 34.07221552593484 H 0.0 **** 0.06
12603 H 71.74489394307575 98.11233997547274 34.46562794037271 H 0.0 **** 0.06
12604 H 70.09825247959179 98.73664006247002 34.727707426134714 H 0.0 **** 0.06
12605 H 70.71548242928313 98.52037129502162 33.07123030147352 H 0.0 **** 0.06
12606 C 107.51987291236458 36.601047140819446 47.047733455746595 C 0.0 **** -0.24
12607 H 108.33347679475727 37.32666964223358 47.045397006010205 H 0.0 **** 0.06
12608 H 107.9042583876763 35.626124930754884 47.349430787528206 H 0.0 **** 0.06
12609 H 107.0936954924953 36.52968285902293 46.04697839864849 H 0.0 **** 0.06
12610 H 106.74925634693108 36.921483460901584 47.74840697028196 H 0.0 **** 0.06
12611 C 20.21289480749929 9.873841349437981 17.22487593606587 C 0.0 **** -0.24
12612 H 21.267329865446168 9.602629856519115 17.16950641219489 H 0.0 **** 0.06
12613 H 19.970933837788735 10.561154887675642 16.413662174570618 H 0.0 **** 0.06
12614 H 20.01164985623598 10.354123078907747 18.181507302777618 H 0.0 **** 0.06
12615 H 19.601601469191618 8.975207586785942 17.133861555352155 H 0.0 **** 0.06
12616 C 29.32699312626987 63.0964691865197 11.799883509250982 C 0.0 **** -0.24
12617 H 30.38177142365157 63.33930534277296 11.67085607029609 H 0.0 **** 0.06
12618 H 29.20173663052575 62.48814746142537 12.69582114002814 H 0.0 **** 0.06
12619 H 28.9740556761384 62.54159740941475 10.930945554737228 H 0.0 **** 0.06
12620 H 28.751733950650163 64.01722321321498 11.901616901752426 H 0.0 **** 0.06
12621 C 69.18744149915725 90.83133712936478 20.154019726108015 C 0.0 **** -0.24
12622 H 69.44048058867355 91.4880186514821 20.987001346860897 H 0.0 **** 0.06
12623 H 68.51573064419256 90.04641090351993 20.502166390045364 H 0.0 **** 0.06
12624 H 70.09781631313803 90.38132523903994 19.75703639151068 H 0.0 **** 0.06
12625 H 68.69727950396455 91.40937296171751 19.371479977018797 H 0.0 **** 0.06
12626 C 39.19732056447134 82.73581490606469 81.54935522880501 C 0.0 **** -0.24
12627 H 40.277704513331855 82.87538550722144 81.54558259049068 H 0.0 **** 0.06
12628 H 38.94784177038525 81.81834278535092 81.01521102426551 H 0.0 **** 0.06
12629 H 38.7198991508364 83.58378574884301 81.05878520080842 H 0.0 **** 0.06
12630 H 38.843405055227095 82.66484856983612 82.57793693765507 H 0.0 **** 0.06
12631 C 98.60530215194262 28.20160100428707 110.55369658398524 C 0.0 **** -0.24
12632 H 98.17847734231287 28.855584210251138 111.31352237655133 H 0.0 **** 0.06
12633 H 98.43816470716524 28.634175208580174 109.56675513956816 H 0.0 **** 0.06
12634 H 98.12845959385152 27.223457627259037 110.60707621265212 H 0.0 **** 0.06
12635 H 99.67610696444103 28.09318697105796 110.72743260716898 H 0.0 **** 0.06
12636 C 72.77463297895417 20.185391625358875 68.03286518796364 C 0.0 **** -0.24
12637 H 72.9519870810687 19.297423148527628 67.42640725878928 H 0.0 **** 0.06
12638 H 73.32498960436953 20.100925136520914 68.97025665391723 H 0.0 **** 0.06
12639 H 71.70888773999582 20.273491688952845 68.2441403680175 H 0.0 **** 0.06
12640 H 73.11240443844997 21.06858025999975 67.4919280942986 H 0.0 **** 0.06
12641 C 65.7829498458243 98.68328257564447 83.07965028783158 C 0.0 **** -0.24
12642 H 66.2369021281836 98.74531014323513 82.09043814880636 H 0.0 **** 0.06
12643 H 65.48435890810771 99.67993228073881 83.40456804023484 H 0.0 **** 0.06
12644 H 66.50461145613298 98.27233274169036 83.784917212046 H 0.0 **** 0.06
12645 H 64.90730405318334 98.0364646304237 83.03716894378535 H 0.0 **** 0.06
12646 C 76.16285249282441 84.42225019540518 95.27166882977562 C 0.0 **** -0.24
12647 H 75.56261890023839 84.351749244811 96.17846205484487 H 0.0 **** 0.06
12648 H 76.75968192242198 83.51663536893813 95.15889827506106 H 0.0 **** 0.06
12649 H 76.82363348194815 85.28670118999469 95.34039088342324 H 0.0 **** 0.06
12650 H 75.50597036885628 84.53511532176697 94.40948494876949 H 0.0 **** 0.06
12651 C 14.5864483992695 60.25571023899043 97.69015115959184 C 0.0 **** -0.24
12652 H 15.089517827576614 60.06995618840668 96.7410998839545 H 0.0 **** 0.06
12653 H 13.982294444392089 61.15934400286852 97.61057264100343 H 0.0 **** 0.06
12654 H 15.331548761316267 60.38437276695474 98.47633575766356 H 0.0 **** 0.06
12655 H 13.945194732426572 59.40865035084461 97.93364655507796 H 0.0 **** 0.06
12656 C 49.224590359899025 85.43636558004944 60.705265689098496 C 0.0 **** -0.24
12657 H 48.19177075873279 85.73456694363843 60.88365940512523 H 0.0 **** 0.06
12658 H 49.887357237741185 86.27683823916328 60.911671877243805 H 0.0 **** 0.06
12659 H 49.339773922351355 85.12969563952926 59.66607177898055 H 0.0 **** 0.06
12660 H 49.48053951445132 84.6024035340553 61.35964411461214 H 0.0 **** 0.06
12661 C 17.722958765783176 87.73421123378803 50.26578599491842 C 0.0 **** -0.24
12662 H 16.7203236093481 87.63801225487376 49.848493220495016 H 0.0 **** 0.06
12663 H 18.1378026711771 86.74159684910629 50.446664543887664 H 0.0 **** 0.06
12664 H 17.674257158440327 88.28582244318636 51.20424319745513 H 0.0 **** 0.06
12665 H 18.358369691055657 88.27132807082754 49.56094612773768 H 0.0 **** 0.06
12666 C 42.12472637221928 22.195640742196446 59.89466049396961 C 0.0 **** -0.24
12667 H 42.58514291452822 23.16795037558805 59.714490010660825 H 0.0 **** 0.06
12668 H 41.61191293016527 21.86383067431649 58.99201539689412 H 0.0 **** 0.06
12669 H 41.407689640831975 22.280094448967674 60.71032927048262 H 0.0 **** 0.06
12670 H 42.89592094563601 21.473308581425897 60.16163595174433 H 0.0 **** 0.06
12671 C 44.79305996403242 81.11748518186083 29.685919209543485 C 0.0 **** -0.24
12672 H 45.48924987641746 81.66912740486454 29.05506650227146 H 0.0 **** 0.06
12673 H 45.28547996623908 80.22713628259406 30.077839030221355 H 0.0 **** 0.06
12674 H 43.92335765204794 80.82414143669284 29.09858111942873 H 0.0 **** 0.06
12675 H 44.475078898949874 81.75076464685593 30.5145632396341 H 0.0 **** 0.06
12676 C 51.26064186501611 63.22395935542414 6.107342942658477 C 0.0 **** -0.24
12677 H 50.603155310524755 64.06589954315916 5.8901566315203695 H 0.0 **** 0.06
12678 H 52.27536292607368 63.588589857332295 6.271158585511444 H 0.0 **** 0.06
12679 H 51.2547019924848 62.53158311876297 5.266207675539931 H 0.0 **** 0.06
12680 H 50.91021426487828 62.71083708422077 7.003297629098142 H 0.0 **** 0.06
12681 C 25.30619357031398 7.058151056612303 6.19674078288341 C 0.0 **** -0.24
12682 H 24.812940568146303 6.656265241413962 5.311834015181262 H 0.0 **** 0.06
12683 H 25.473187513678425 6.255404861450131 6.9156763528889655 H 0.0 **** 0.06
12684 H 24.676166825136306 7.825099318210107 6.647941877197638 H 0.0 **** 0.06
12685 H 26.263493949336066 7.494964497201124 5.911049040270825 H 0.0 **** 0.06
12686 C 62.780403132271175 52.287504465220934 21.497743780255092 C 0.0 **** -0.24
12687 H 62.947849244818485 53.17053523225803 22.114134221734005 H 0.0 **** 0.06
12688 H 61.70924436260623 52.09963052144144 21.41772470512622 H 0.0 **** 0.06
12689 H 63.26829069365073 51.42748869439498 21.95479110307467 H 0.0 **** 0.06
12690 H 63.19513817517293 52.45497153237096 20.50332012861901 H 0.0 **** 0.06
12691 C 98.94881102242691 16.211334298990266 103.83000015018908 C 0.0 **** -0.24
12692 H 99.41806315405482 16.770958447788985 103.02061705196351 H 0.0 **** 0.06
12693 H 98.03979399920338 16.72385143198838 104.14573896713762 H 0.0 **** 0.06
12694 H 99.63850009591637 16.14239929585183 104.6707061833238 H 0.0 **** 0.06
12695 H 98.69883868322047 15.209457995304959 103.481445398481 H 0.0 **** 0.06
12696 C 62.452683590706215 72.27460560421241 45.63201663134947 C 0.0 **** -0.24
12697 H 62.862599289791206 73.23877837661723 45.93185273523346 H 0.0 **** 0.06
12698 H 62.53777281040675 72.16489867291938 44.5505463435141 H 0.0 **** 0.06
12699 H 61.40327137869599 72.22103389563017 45.92198528293247 H 0.0 **** 0.06
12700 H 63.006505432585925 71.4757831079537 46.12307733211219 H 0.0 **** 0.06
12701 C 58.25955123060199 65.60021091195176 6.218964951799649 C 0.0 **** -0.24
12702 H 59.18028017591193 65.12538550738634 6.559550963545917 H 0.0 **** 0.06
12703 H 57.48085617947835 65.46359299242215 6.96898246210381 H 0.0 **** 0.06
12704 H 57.94394804081512 65.14550774834879 5.279262628368855 H 0.0 **** 0.06
12705 H 58.435048499937714 66.6652811645709 6.066295975606209 H 0.0 **** 0.06
12706 C 16.014771501584733 81.81190105365792 103.15543937138418 C 0.0 **** -0.24
12707 H 15.614400146626963 81.83365811761011 104.16981860135479 H 0.0 **** 0.06
12708 H 15.757379589682841 80.86285078218891 102.68471042673913 H 0.0 **** 0.06
12709 H 17.09875310416612 81.91763619435635 103.1905059230239 H 0.0 **** 0.06
12710 H 15.586473944990246 82.63212247845813 102.57934758342508 H 0.0 **** 0.06
12711 C 90.07736663880644 97.35307058722589 79.8549090576964 C 0.0 **** -0.24
12712 H 89.80911434892101 98.0159311398386 79.03282129976067 H 0.0 **** 0.06
12713 H 89.73181043128125 97.78281775298167 80.79547114774665 H 0.0 **** 0.06
12714 H 91.1604205200145 97.23176771838348 79.88604851366874 H 0.0 **** 0.06
12715 H 89.60720527922138 96.38035441028403 79.70570672326964 H 0.0 **** 0.06
12716 C 24.189469834922704 20.80824392098799 39.56441724187874 C 0.0 **** -0.24
12717 H 24.45651764919191 20.589155483180605 40.59871144672485 H 0.0 **** 0.06
12718 H 23.276425605148205 20.271613260500686 39.30431041849522 H 0.0 **** 0.06
12719 H 24.998357414470433 20.490413172821945 38.90678952406944 H 0.0 **** 0.06
12720 H 24.027805237364362 21.880053816115293 39.449971474276396 H 0.0 **** 0.06
12721 C 44.50294630760476 75.0650161809304 7.775685353186944 C 0.0 **** -0.24
12722 H 45.54737619275599 75.32906560142322 7.608479279735647 H 0.0 **** 0.06
12723 H 44.20681778668569 74.28873852300256 7.069621145734473 H 0.0 **** 0.06
12724 H 43.8779660820025 75.9464107426162 7.629743211012709 H 0.0 **** 0.06
12725 H 44.3792937793049 74.69674721343722 8.79385612743215 H 0.0 **** 0.06
12726 C 70.97390943287854 97.24181844447469 12.77914225909663 C 0.0 **** -0.24
12727 H 71.3788664028886 96.39383204196525 12.226355073423065 H 0.0 **** 0.06
12728 H 70.2063775502906 96.89230193966989 13.469300739361785 H 0.0 **** 0.06
12729 H 70.53739520307352 97.95487110716073 12.080326174210455 H 0.0 **** 0.06
12730 H 71.7739014765001 97.72567548358313 13.339233155969822 H 0.0 **** 0.06
12731 C 38.47799546897221 108.1961206324471 7.133905360970516 C 0.0 **** -0.24
12732 H 37.872680212026125 108.99529427221836 7.563159047492604 H 0.0 **** 0.06
12733 H 38.359548014203426 108.19388527416172 6.050113885466033 H 0.0 **** 0.06
12734 H 38.15282551975156 107.23757936192087 7.538558147401545 H 0.0 **** 0.06
12735 H 39.525653998699624 108.3596062260329 7.385748128136925 H 0.0 **** 0.06
12736 C 45.44702946673027 93.69879289192133 55.018440951162624 C 0.0 **** -0.24
12737 H 45.054710123204615 94.5997216384502 55.489576420711686 H 0.0 **** 0.06
12738 H 44.72296143030229 92.8908377204863 55.122530533803484 H 0.0 **** 0.06
12739 H 46.382161080905064 93.41387438659643 55.50078113329013 H 0.0 **** 0.06
12740 H 45.62828523250897 93.89073782215235 53.96087571684533 H 0.0 **** 0.06
12741 C 71.39236773997206 105.08569729949332 61.35478132954745 C 0.0 **** -0.24
12742 H 71.17267616956 104.10631583066575 61.77906337285799 H 0.0 **** 0.06
12743 H 71.34463392141896 105.84031459045495 62.1407387243965 H 0.0 **** 0.06
12744 H 70.66120422169423 105.31881905939902 60.58178792463491 H 0.0 **** 0.06
12745 H 72.3920173648665 105.07666055324204 60.91938296115791 H 0.0 **** 0.06
12746 C 18.20989211758132 41.22655833982452 64.68378802390565 C 0.0 **** -0.24
12747 H 18.119873666907537 40.19977915596942 65.03793898437524 H 0.0 **** 0.06
12748 H 18.306195879676352 41.22897272206748 63.597624806604784 H 0.0 **** 0.06
12749 H 19.090621547752647 41.68815887773869 65.1285950282447 H 0.0 **** 0.06
12750 H 17.32167679157567 41.788074119044495 64.9709991421556 H 0.0 **** 0.06
12751 C 45.270781431729404 50.53387447619531 102.5160091386642 C 0.0 **** -0.24
12752 H 44.91222611250666 50.26603796392365 103.5098740267083 H 0.0 **** 0.06
12753 H 44.4405025305922 50.91796347484163 101.92147282121368 H 0.0 **** 0.06
12754 H 45.687925888706786 49.65136883703167 102.03141135861279 H 0.0 **** 0.06
12755 H 46.04060127358798 51.30068324484614 102.6023714793564 H 0.0 **** 0.06
12756 C 105.13760346935797 47.22699568784054 98.15916074385221 C 0.0 **** -0.24
12757 H 104.1088474937108 47.5859922434978 98.13279148449942 H 0.0 **** 0.06
12758 H 105.14504865076591 46.16289604006698 98.39798140007032 H 0.0 **** 0.06
12759 H 105.69369960169278 47.774570993749734 98.92028630667771 H 0.0 **** 0.06
12760 H 105.60237918899963 47.38363115107552 97.1854782394781 H 0.0 **** 0.06
12761 C 24.993951966975743 16.172705818954938 67.52750139053535 C 0.0 **** -0.24
12762 H 24.955417494234098 17.202803303854296 67.1721662876861 H 0.0 **** 0.06
12763 H 24.141732983701104 15.619880962743878 67.13167284390562 H 0.0 **** 0.06
12764 H 24.960235029787867 16.162318869125613 68.6167566370499 H 0.0 **** 0.06
12765 H 25.918782700630402 15.706091769631769 67.18851736847071 H 0.0 **** 0.06
12766 C 81.22117907298986 7.039736187879436 34.051748145298944 C 0.0 **** -0.24
12767 H 81.1298720295782 6.211599870542246 34.75436253527096 H 0.0 **** 0.06
12768 H 80.23422324076358 7.464675985761023 33.86241984373916 H 0.0 **** 0.06
12769 H 81.6474627097175 6.677750689624059 33.116276884602684 H 0.0 **** 0.06
12770 H 81.87113097227024 7.805700202521793 34.475064103366265 H 0.0 **** 0.06
12771 C 44.52573347239002 6.232023156202104 61.66497997366264 C 0.0 **** -0.24
12772 H 43.785101427093984 6.020763870472251 62.436716620257585 H 0.0 **** 0.06
12773 H 45.42002405603844 5.634172130885787 61.84657661100073 H 0.0 **** 0.06
12774 H 44.784852488733605 7.290307348958663 61.690991865919614 H 0.0 **** 0.06
12775 H 44.11327411943777 5.982579737725672 60.68804859101135 H 0.0 **** 0.06
12776 C 94.03183451831512 9.646393579524982 109.22417155309859 C 0.0 **** -0.24
12777 H 94.36625824449357 10.150885804131178 108.31790609714494 H 0.0 **** 0.06
12778 H 92.94143005920057 9.634691351662099 109.25159406376548 H 0.0 **** 0.06
12779 H 94.41265077564742 10.176434657780987 110.09639004423275 H 0.0 **** 0.06
12780 H 94.40623626228887 8.622910421229221 109.22856143134078 H 0.0 **** 0.06
12781 C 63.47745702010829 53.7835408748972 95.54127191821189 C 0.0 **** -0.24
12782 H 64.37929719534094 54.12951317871983 95.03691375254903 H 0.0 **** 0.06
12783 H 62.902800984403996 54.64305940577151 95.88751909440953 H 0.0 **** 0.06
12784 H 63.753981363668544 53.16385768661394 96.39489233593872 H 0.0 **** 0.06
12785 H 62.87409207597915 53.198502418952955 94.84689845982662 H 0.0 **** 0.06
12786 C 9.502457263135838 23.114499177791714 17.53077048456845 C 0.0 **** -0.24
12787 H 9.138084890437625 23.03590891581257 18.55467723697211 H 0.0 **** 0.06
12788 H 9.046427822495062 23.978906396166252 17.048208531896535 H 0.0 **** 0.06
12789 H 9.23910701285773 22.210932643173805 16.98159941978855 H 0.0 **** 0.06
12790 H 10.58634485454212 23.230933967734217 17.539099804834336 H 0.0 **** 0.06
12791 C 88.81287712808299 86.32882153365372 48.04970892615873 C 0.0 **** -0.24
12792 H 89.35246938783322 85.40115169412907 48.24043017300943 H 0.0 **** 0.06
12793 H 88.9546443945195 86.62428587802424 47.00981920671589 H 0.0 **** 0.06
12794 H 89.1927159150082 87.11212124747972 48.70592063247679 H 0.0 **** 0.06
12795 H 87.75064529079498 86.17685383207527 48.24307673494147 H 0.0 **** 0.06
12796 C 57.12164557960367 68.15502764318975 104.0054227452008 C 0.0 **** -0.24
12797 H 56.5525013625366 68.87742124918486 104.5898703754338 H 0.0 **** 0.06
12798 H 57.93244515086955 67.7539931373958 104.61339980071028 H 0.0 **** 0.06
12799 H 57.5357457730646 68.64618179086129 103.12530495457344 H 0.0 **** 0.06
12800 H 56.46465394708009 67.34309824840847 103.69347821776017 H 0.0 **** 0.06
12801 C 68.66084723419488 71.72104747578362 104.13185118340228 C 0.0 **** -0.24
12802 H 69.4489224188224 70.98729141002616 104.29568396578637 H 0.0 **** 0.06
12803 H 68.90790484122024 72.64297558953439 104.65886717505457 H 0.0 **** 0.06
12804 H 67.71523099418704 71.32934463778344 104.50857338533679 H 0.0 **** 0.06
12805 H 68.57019122168978 71.92533192376959 103.06464589740145 H 0.0 **** 0.06
12806 C 80.84583018950045 57.53583332207017 35.89902133519795 C 0.0 **** -0.24
12807 H 81.47717590912987 58.35276886968893 35.54744815697015 H 0.0 **** 0.06
12808 H 79.94932052748061 57.47879069036676 35.281816112463986 H 0.0 **** 0.06
12809 H 80.56316013701489 57.71583881062338 36.93630259168383 H 0.0 **** 0.06
12810 H 81.39581872046458 56.597940970980396 35.829363392292116 H 0.0 **** 0.06
12811 C 86.02773427998662 33.18479451277187 39.666658018101856 C 0.0 **** -0.24
12812 H 87.09186102581717 33.417231843012104 39.622659160417555 H 0.0 **** 0.06
12813 H 85.56168361781562 33.434909535202706 38.7131104139188 H 0.0 **** 0.06
12814 H 85.5624321503469 33.76628007762663 40.46255072224446 H 0.0 **** 0.06
12815 H 85.89674805405988 32.12152817788632 39.866825508636936 H 0.0 **** 0.06
12816 C 48.990465315986725 70.6268875002822 19.021272723060378 C 0.0 **** -0.24
12817 H 49.05286843872861 69.98326363466113 18.144526558159725 H 0.0 **** 0.06
12818 H 49.54772794350107 71.5463181951774 18.837423945261605 H 0.0 **** 0.06
12819 H 49.4145962705546 70.1105693866663 19.88202659834775 H 0.0 **** 0.06
12820 H 47.945818172462445 70.8681580303016 19.220276891092226 H 0.0 **** 0.06
12821 C 47.1503899016929 2.474374027997494 16.556809571319533 C 0.0 **** -0.24
12822 H 47.67225933032333 2.2532921632631773 15.626822614590225 H 0.0 **** 0.06
12823 H 47.68461418895601 2.019025294067754 17.390607907796692 H 0.0 **** 0.06
12824 H 46.13882038786403 2.0715480599661173 16.510591949148136 H 0.0 **** 0.06
12825 H 47.10532600891601 3.5543491524213717 16.70030783447548 H 0.0 **** 0.06
12826 C 110.28810545201466 99.45237276217068 101.09667629370503 C 0.0 **** -0.24
12827 H 111.06190664286682 98.97036236759519 100.49787039261017 H 0.0 **** 0.06
12828 H 109.81252631901984 98.71056447934305 101.73912064634125 H 0.0 **** 0.06
12829 H 109.54203282380583 99.8944457261054 100.43791400341175 H 0.0 **** 0.06
12830 H 110.73727088738875 100.23110706735189 101.7122508021259 H 0.0 **** 0.06
12831 C 31.908123636039363 55.33398481464109 63.4700887793327 C 0.0 **** -0.24
12832 H 32.02429441562729 55.18980980870333 62.39630499813953 H 0.0 **** 0.06
12833 H 30.851768156549262 55.26087703568887 63.73356783658531 H 0.0 **** 0.06
12834 H 32.28513758681205 56.318625345422284 63.74806410070069 H 0.0 **** 0.06
12835 H 32.468980347476474 54.56666495363264 64.00322073779633 H 0.0 **** 0.06
12836 C 102.420571171326 76.77292855554313 8.781214211708841 C 0.0 **** -0.24
12837 H 102.63574001429942 75.76880630021824 9.148183765803747 H 0.0 **** 0.06
12838 H 101.9589271235628 77.35807460049783 9.57579432031511 H 0.0 **** 0.06
12839 H 101.73975042904368 76.71139075781414 7.932577117742991 H 0.0 **** 0.06
12840 H 103.34870102425316 77.25115205919019 8.468543494258485 H 0.0 **** 0.06
12841 C 33.68856659700576 30.266025701006413 97.980381615826 C 0.0 **** -0.24
12842 H 34.01230146483405 29.23919874239789 97.80687102940547 H 0.0 **** 0.06
12843 H 33.6703558487 30.46532337812198 99.05144160107095 H 0.0 **** 0.06
12844 H 32.69007454029772 30.406257286080177 97.56694066358497 H 0.0 **** 0.06
12845 H 34.381883845805014 30.95113983097872 97.49380121211871 H 0.0 **** 0.06
12846 C 89.80420386704446 10.658748874773437 96.20089081147682 C 0.0 **** -0.24
12847 H 88.94693333208684 11.063793316641807 95.66281927207956 H 0.0 **** 0.06
12848 H 90.52691204238579 10.263354270330694 95.48781109447668 H 0.0 **** 0.06
12849 H 89.47124950974859 9.859060195659083 96.86329038581664 H 0.0 **** 0.06
12850 H 90.26906269882778 11.448724695799001 96.79103250343917 H 0.0 **** 0.06
12851 C 94.90576192734149 97.01471902316075 70.30680009320872 C 0.0 **** -0.24
12852 H 94.68598667211235 95.95225443229708 70.40468519069123 H 0.0 **** 0.06
12853 H 95.96531473130014 97.18594778246836 70.50083456366445 H 0.0 **** 0.06
12854 H 94.30958424629713 97.5773142196876 71.02439084543042 H 0.0 **** 0.06
12855 H 94.66429047649085 97.34327575045538 69.29608018512954 H 0.0 **** 0.06
12856 C 31.401930626714886 88.87674831840945 82.89998210531587 C 0.0 **** -0.24
12857 H 32.13452237717033 88.94201824179311 82.09616319260874 H 0.0 **** 0.06
12858 H 30.405027549932747 88.75538764840252 82.47471437772353 H 0.0 **** 0.06
12859 H 31.43363987680671 89.78834691420803 83.4955189924581 H 0.0 **** 0.06
12860 H 31.633596409383507 88.02018420666724 83.53344374319207 H 0.0 **** 0.06
12861 C 33.12411577866487 92.17278820900586 16.829890069161905 C 0.0 **** -0.24
12862 H 32.60594230258761 91.23259625016397 17.018100191642468 H 0.0 **** 0.06
12863 H 33.062216117647466 92.41497454458816 15.768252176129415 H 0.0 **** 0.06
12864 H 34.17063620885159 92.07443290008607 17.119111395436043 H 0.0 **** 0.06
12865 H 32.658346300331004 92.96746366559238 17.41279267657637 H 0.0 **** 0.06
12866 C 78.99649722601953 50.651105844311644 12.51519096821778 C 0.0 **** -0.24
12867 H 78.98110167904471 51.19917228465647 11.574094908275185 H 0.0 **** 0.06
12868 H 78.50127237677752 51.23979125710795 13.287706074303628 H 0.0 **** 0.06
12869 H 80.02921755185982 50.46179761002472 12.8080251409541 H 0.0 **** 0.06
12870 H 78.47406977965574 49.70145022220473 12.390942826914113 H 0.0 **** 0.06
12871 C 25.2369802371191 28.18235631216112 96.60313745166548 C 0.0 **** -0.24
12872 H 24.620068235802393 29.041407914449735 96.34046725726445 H 0.0 **** 0.06
12873 H 24.96238572028119 27.33311649736669 95.97779330792248 H 0.0 **** 0.06
12874 H 25.079488836144748 27.92855260588459 97.651416932265 H 0.0 **** 0.06
12875 H 26.28748836712873 28.427276048216186 96.44379892634437 H 0.0 **** 0.06
12876 C 107.0491108829989 67.76430216276304 2.1027137139757315 C 0.0 **** -0.24
12877 H 107.41939516074808 67.52226598922357 3.0989409867713107 H 0.0 **** 0.06
12878 H 107.82629852297016 68.28676450022894 1.5447502559798068 H 0.0 **** 0.06
12879 H 106.17046212638722 68.40283694995878 2.1870603653476053 H 0.0 **** 0.06
12880 H 106.78146688673073 66.84535872204782 1.580883865648559 H 0.0 **** 0.06
12881 C 85.32835821214871 23.908312185862556 42.33589811018507 C 0.0 **** -0.24
12882 H 84.74288547992057 23.085013845425067 41.92750342590793 H 0.0 **** 0.06
12883 H 86.3713673356275 23.793005103093577 42.03973258929619 H 0.0 **** 0.06
12884 H 85.25668823136186 23.900775976457993 43.423359067738375 H 0.0 **** 0.06
12885 H 84.9438672690899 24.85269202384623 41.953063844612615 H 0.0 **** 0.06
12886 C 60.10077275858285 75.6457674159139 38.54901971163124 C 0.0 **** -0.24
12887 H 60.65319898279819 74.7203653194203 38.38026825287464 H 0.0 **** 0.06
12888 H 59.45346302409871 75.52849124113163 39.418254518705744 H 0.0 **** 0.06
12889 H 59.49527262139665 75.87089616503476 37.67125587898949 H 0.0 **** 0.06
12890 H 60.803131060060025 76.46038417088386 38.725592897051264 H 0.0 **** 0.06
12891 C 50.388207826840215 25.885858844569952 63.595357022068924 C 0.0 **** -0.24
12892 H 49.5894983172916 26.626019287691122 63.62944970407801 H 0.0 **** 0.06
12893 H 51.199995007755035 26.19673233689636 64.25403148365962 H 0.0 **** 0.06
12894 H 50.76086730142788 25.800460528607744 62.5751155197587 H 0.0 **** 0.06
12895 H 50.003277559038565 24.919899734394647 63.92332570020915 H 0.0 **** 0.06
12896 C 85.56213426166163 61.43999128482085 105.46905941805562 C 0.0 **** -0.24
12897 H 86.18172405590295 60.70235427108864 105.97764253018013 H 0.0 **** 0.06
12898 H 86.12543822624772 62.36561603847257 105.34547441004753 H 0.0 **** 0.06
12899 H 84.66862687861162 61.635522486650686 106.06257932092285 H 0.0 **** 0.06
12900 H 85.27138642754804 61.058238323682914 104.49070872833238 H 0.0 **** 0.06
12901 C 108.19020457760968 94.65008520560242 27.54219783897193 C 0.0 **** -0.24
12902 H 109.08120868453058 94.52791480416923 28.158480105592844 H 0.0 **** 0.06
12903 H 107.30446547715222 94.6311259920649 28.178159778227126 H 0.0 **** 0.06
12904 H 108.13485477789693 93.83813398039624 26.818155532144203 H 0.0 **** 0.06
12905 H 108.24066764292913 95.60332388942983 27.017287223666244 H 0.0 **** 0.06
12906 C 34.07717967349976 75.91751677083796 90.1764051230926 C 0.0 **** -0.24
12907 H 34.96748948483943 75.65550368795374 90.74851729895215 H 0.0 **** 0.06
12908 H 33.62766451155724 75.01182864437985 89.76874854030865 H 0.0 **** 0.06
12909 H 34.35386129307534 76.58567644060419 89.36030175051354 H 0.0 **** 0.06
12910 H 33.36164717689019 76.4176699580763 90.82897371067821 H 0.0 **** 0.06
12911 C 54.18159768022548 36.46998929926747 18.701038408618558 C 0.0 **** -0.24
12912 H 54.03163030901533 36.38396160208731 19.777018301832896 H 0.0 **** 0.06
12913 H 54.84976597833247 35.676705926365145 18.36336781286306 H 0.0 **** 0.06
12914 H 54.623009607098254 37.44002860116797 18.472455833237063 H 0.0 **** 0.06
12915 H 53.221723123200206 36.37855502083468 18.192508812323894 H 0.0 **** 0.06
12916 C 88.39868391770405 44.15199400952244 80.11790899825654 C 0.0 **** -0.24
12917 H 88.19244244007544 44.8267569896515 80.94977929652002 H 0.0 **** 0.06
12918 H 89.23181198794704 43.499330410684706 80.37841344864906 H 0.0 **** 0.06
12919 H 88.65461930394089 44.73500115970174 79.23308953479888 H 0.0 **** 0.06
12920 H 87.51381942385488 43.54898101377006 79.91268736782372 H 0.0 **** 0.06
12921 C 12.347946421116376 14.93115741897617 30.436735748433435 C 0.0 **** -0.24
12922 H 13.433638865608842 14.964654978039135 30.34370037040359 H 0.0 **** 0.06
12923 H 11.902524217806402 15.644432313815912 29.74227208177684 H 0.0 **** 0.06
12924 H 12.063785586048766 15.189649392055344 31.4566211502356 H 0.0 **** 0.06
12925 H 11.994476943732252 13.927315375148197 30.204259641914042 H 0.0 **** 0.06
12926 C 44.42376898060854 84.5598401536268 66.27246879701596 C 0.0 **** -0.24
12927 H 43.919934894230266 83.73184346587999 66.77017391228077 H 0.0 **** 0.06
12928 H 45.27633039718103 84.87933435312543 66.87119426366246 H 0.0 **** 0.06
12929 H 43.72822750320125 85.3911052052208 66.15642481316132 H 0.0 **** 0.06
12930 H 44.7700068513966 84.23659081758069 65.29088593043775 H 0.0 **** 0.06
12931 C 49.95196065785433 58.860594187930246 54.38731140425569 C 0.0 **** -0.24
12932 H 50.05483780881863 59.87990058376198 54.01622993989822 H 0.0 **** 0.06
12933 H 49.36838218976277 58.865691319302016 55.30860396708662 H 0.0 **** 0.06
12934 H 50.9396731436031 58.444260898853116 54.585097566502306 H 0.0 **** 0.06
12935 H 49.44504631665839 58.25128874413383 53.63863224034748 H 0.0 **** 0.06
12936 C 53.13727985590127 60.69058692831419 100.97320802773304 C 0.0 **** -0.24
12937 H 52.77098657034132 60.015011735597085 100.20015426255452 H 0.0 **** 0.06
12938 H 53.676936608471145 61.516084525540066 100.50785429685979 H 0.0 **** 0.06
12939 H 53.8065416145875 60.14879392248983 101.64106934430625 H 0.0 **** 0.06
12940 H 52.2947085698085 61.08243615193163 101.54234114880228 H 0.0 **** 0.06
12941 C 73.62899096297559 5.018064459032075 59.22259132334442 C 0.0 **** -0.24
12942 H 72.60950061836087 5.401869740546445 59.203973585517616 H 0.0 **** 0.06
12943 H 73.86370665104906 4.564757686378414 58.259314485442516 H 0.0 **** 0.06
12944 H 73.72047022396305 4.269517018814241 60.009377817472654 H 0.0 **** 0.06
12945 H 74.32226438270482 5.837112309144246 59.417740982120705 H 0.0 **** 0.06
12946 C 83.87846576337267 32.190033631951664 57.144086194565716 C 0.0 **** -0.24
12947 H 82.9171106947885 32.48276472299393 57.56567088168066 H 0.0 **** 0.06
12948 H 84.19366265668518 31.243180568934683 57.582858279230514 H 0.0 **** 0.06
12949 H 84.6207063807814 32.95779096849099 57.363321882007845 H 0.0 **** 0.06
12950 H 83.78195526716846 32.075496049401266 56.06444060626226 H 0.0 **** 0.06
12951 C 73.40862578432424 29.430881053236817 100.74220262863572 C 0.0 **** -0.24
12952 H 72.7646478444052 28.564634773024636 100.89963075748474 H 0.0 **** 0.06
12953 H 72.88878823769201 30.333059503443053 101.0665215505058 H 0.0 **** 0.06
12954 H 73.65297653940931 29.512882547682835 99.68378393844316 H 0.0 **** 0.06
12955 H 74.32554546033651 29.31111591690035 101.31928525010923 H 0.0 **** 0.06
12956 C 99.85082967825083 98.18681136778456 106.56187152711387 C 0.0 **** -0.24
12957 H 99.28660457960925 98.84155903011795 107.22556516119347 H 0.0 **** 0.06
12958 H 99.17904145959068 97.75818210753155 105.81751655279633 H 0.0 **** 0.06
12959 H 100.30749335230203 97.38608877217791 107.14295956538807 H 0.0 **** 0.06
12960 H 100.63017932150146 98.761415561311 106.06144482907754 H 0.0 **** 0.06
12961 C 68.83127010037265 19.583158130285483 69.97672222481144 C 0.0 **** -0.24
12962 H 68.54021264106944 19.249151513016045 70.97260869669917 H 0.0 **** 0.06
12963 H 68.70496217954178 18.764888768702065 69.26738216395547 H 0.0 **** 0.06
12964 H 69.87658414515033 19.894650041283683 69.98984313794695 H 0.0 **** 0.06
12965 H 68.20487276437939 20.423793034939706 69.67781073170356 H 0.0 **** 0.06
12966 C 33.23544511606747 3.8983871316295335 92.24485542955065 C 0.0 **** -0.24
12967 H 33.55007235957942 3.592424951948715 93.24238365073977 H 0.0 **** 0.06
12968 H 33.0747691786633 4.976093319510383 92.2287831388752 H 0.0 **** 0.06
12969 H 32.308080794497215 3.3877933828534736 91.98447265161212 H 0.0 **** 0.06
12970 H 34.009824841812446 3.634423427299936 91.52339439620901 H 0.0 **** 0.06
12971 C 57.83760609693161 71.65795346157734 33.130569115211834 C 0.0 **** -0.24
12972 H 58.912735650641366 71.48026813480004 33.1089568238326 H 0.0 **** 0.06
12973 H 57.3933807270144 71.0991934223963 33.95457020286228 H 0.0 **** 0.06
12974 H 57.39568299639319 71.33075775879297 32.189448679255925 H 0.0 **** 0.06
12975 H 57.648558813996374 72.72256964849288 33.269512444357446 H 0.0 **** 0.06
12976 C 63.51694581202159 79.59762183349085 101.28800807290975 C 0.0 **** -0.24
12977 H 64.1251700275445 79.23789284400226 102.1182996607814 H 0.0 **** 0.06
12978 H 63.50774192723327 78.85023693308614 100.49414733561827 H 0.0 **** 0.06
12979 H 63.9383071370911 80.5280644941094 100.90671573298698 H 0.0 **** 0.06
12980 H 62.49840111324363 79.77462767228371 101.63358637914907 H 0.0 **** 0.06
12981 C 86.99669268811658 44.640539372785184 52.74147555435911 C 0.0 **** -0.24
12982 H 87.05477054095883 45.26681441336453 53.631962101887325 H 0.0 **** 0.06
12983 H 86.35165891370778 43.78444063516804 52.941015394135945 H 0.0 **** 0.06
12984 H 87.99489904962343 44.29188993628952 52.47762079055536 H 0.0 **** 0.06
12985 H 86.58497879767367 45.221993672797396 51.91625175090044 H 0.0 **** 0.06
12986 C 59.60097601667809 53.916542549390876 73.45879079579193 C 0.0 **** -0.24
12987 H 58.77999534588588 53.73250601446176 74.15272889855017 H 0.0 **** 0.06
12988 H 59.23204311549807 54.476854704622724 72.60045375848617 H 0.0 **** 0.06
12989 H 60.01209368931234 52.96444770585659 73.12363204768363 H 0.0 **** 0.06
12990 H 60.378652561142815 54.49127847874845 73.96175056941287 H 0.0 **** 0.06
12991 C 106.39828407498453 60.84880723872328 71.32947760734805 C 0.0 **** -0.24
12992 H 106.84055836313362 59.906655787672506 71.00418561883899 H 0.0 **** 0.06
12993 H 107.16801484905329 61.61984780689653 71.3589343062215 H 0.0 **** 0.06
12994 H 105.97034540586208 60.72340684999915 72.32396790793251 H 0.0 **** 0.06
12995 H 105.61538813591616 61.14221603167633 70.63089482284406 H 0.0 **** 0.06
12996 C 39.783811458765484 52.534669943339196 35.23703208247103 C 0.0 **** -0.24
12997 H 39.4854228679047 53.252813022107176 34.47282757267513 H 0.0 **** 0.06
12998 H 39.069261849194305 51.712266974896124 35.25981171746358 H 0.0 **** 0.06
12999 H 39.80478972844912 53.02605453068861 36.209181131998605 H 0.0 **** 0.06
13000 H 40.77662914680863 52.14863228602306 35.00283180366792 H 0.0 **** 0.06
13001 C 98.42451511067753 74.20539433321058 42.29929898915057 C 0.0 **** -0.24
13002 H 98.20514987291834 74.44307086938112 43.33950349534402 H 0.0 **** 0.06
13003 H 99.00800139309304 73.2857756840729 42.25181166851095 H 0.0 **** 0.06
13004 H 98.99444032624065 75.02087653678343 41.853197215090916 H 0.0 **** 0.06
13005 H 97.49097747913493 74.07271525778651 41.752683517110825 H 0.0 **** 0.06
13006 C 24.517085307922557 70.88279112469894 90.9260279129014 C 0.0 **** -0.24
13007 H 24.954525478798644 70.46190705030386 91.83146672109297 H 0.0 **** 0.06
13008 H 25.17370655778771 71.65909644257272 90.53235374109185 H 0.0 **** 0.06
13009 H 23.5439248304493 71.31417502914769 91.16066028073519 H 0.0 **** 0.06
13010 H 24.396216218231984 70.09668414238303 90.18121574336502 H 0.0 **** 0.06
13011 C 26.332683819636713 56.50737902492191 93.80496407238414 C 0.0 **** -0.24
13012 H 26.756229388969018 55.905301942777776 94.60948015145716 H 0.0 **** 0.06
13013 H 25.972524881044194 55.852072474009006 93.01203369469262 H 0.0 **** 0.06
13014 H 27.098679724510816 57.17383304071088 93.40762531912667 H 0.0 **** 0.06
13015 H 25.50285892536118 57.09926272812294 94.19292943990504 H 0.0 **** 0.06
13016 C 15.607597065031996 69.41762109278473 35.0862824869059 C 0.0 **** -0.24
13017 H 14.965251164823428 69.53955930142544 35.95859238859612 H 0.0 **** 0.06
13018 H 15.842619560913647 68.36025894013925 34.95473949162462 H 0.0 **** 0.06
13019 H 16.52962936144803 69.97984055240175 35.23223257043239 H 0.0 **** 0.06
13020 H 15.091138524349049 69.78796947745063 34.200900441832175 H 0.0 **** 0.06
13021 C 0.9753103146455038 79.07646546870396 54.27500108962397 C 0.0 **** -0.24
13022 H 1.8712756929772336 79.51971504325935 54.71014889343758 H 0.0 **** 0.06
13023 H 1.0598361379898797 79.0791512874921 53.188102325538466 H 0.0 **** 0.06
13024 H 0.10239622943539572 79.6554328252923 54.57480015450386 H 0.0 **** 0.06
13025 H 0.869794188386166 78.05062727090326 54.62864935138924 H 0.0 **** 0.06
13026 C 90.7940536208237 10.327485299690537 71.65147712654439 C 0.0 **** -0.24
13027 H 91.60336453501156 9.69590176277272 72.01553581315864 H 0.0 **** 0.06
13028 H 90.767902264708 11.252552593966755 72.22863950593174 H 0.0 **** 0.06
13029 H 89.84503101405244 9.802662973273215 71.76151509158669 H 0.0 **** 0.06
13030 H 90.96012304819205 10.560742334627022 70.59908798581169 H 0.0 **** 0.06
13031 C 109.73051314345324 75.25448342396678 68.59065034193355 C 0.0 **** -0.24
13032 H 108.72438926025612 75.6723382196422 68.59741602085563 H 0.0 **** 0.06
13033 H 110.45780276373631 76.05644432536477 68.72313554914348 H 0.0 **** 0.06
13034 H 109.90931898980253 74.7550274330719 67.6376125698539 H 0.0 **** 0.06
13035 H 109.83045428191184 74.5342259507491 69.40302938147295 H 0.0 **** 0.06
13036 C 54.847595695150574 77.03223000124308 2.9792530884752075 C 0.0 **** -0.24
13037 H 55.1143012197287 75.97747301067392 3.0479888082584026 H 0.0 **** 0.06
13038 H 54.756156157826126 77.31569251204087 1.9298658199049834 H 0.0 **** 0.06
13039 H 55.62210967413267 77.63461336203164 3.453009427268162 H 0.0 **** 0.06
13040 H 53.89599217345642 77.19974202292815 3.484499791732457 H 0.0 **** 0.06
13041 C 2.978204925972994 108.40329368583281 54.00990551894523 C 0.0 **** -0.24
13042 H 3.80245414179797 107.95803289471556 54.56896356139697 H 0.0 **** 0.06
13043 H 2.431481884296744 107.62016527963951 53.48419402930679 H 0.0 **** 0.06
13044 H 3.374126373033114 109.11796315960675 53.28778812828318 H 0.0 **** 0.06
13045 H 2.3077192764343533 108.91572900004016 54.69943633676266 H 0.0 **** 0.06
13046 C 79.72622201408969 46.9413272048094 16.545599173407652 C 0.0 **** -0.24
13047 H 80.26277613917026 46.00040344182594 16.41903325214878 H 0.0 **** 0.06
13048 H 79.90571272091174 47.581470443886076 15.682534639328992 H 0.0 **** 0.06
13049 H 80.07728657104373 47.44087621663044 17.44899013753013 H 0.0 **** 0.06
13050 H 78.65829414935132 46.740745498434876 16.633267873394175 H 0.0 **** 0.06
13051 C 19.29801547337925 94.363697077463 96.79456855391207 C 0.0 **** -0.24
13052 H 19.04397106327022 94.6395894527163 95.77123940136762 H 0.0 **** 0.06
13053 H 19.606358710358364 93.31841543218982 96.82219968955438 H 0.0 **** 0.06
13054 H 18.42671352209095 94.50298877300165 97.43537392236304 H 0.0 **** 0.06
13055 H 20.113606410296 94.99371892631363 97.14947082754142 H 0.0 **** 0.06
13056 C 22.651746623853086 95.65231999287315 47.35636154553481 C 0.0 **** -0.24
13057 H 23.27734595369796 94.84349664179283 47.73369957641489 H 0.0 **** 0.06
13058 H 21.64552862770853 95.27637400995332 47.17073099227798 H 0.0 **** 0.06
13059 H 23.075681467194073 96.03440373489906 46.42702788200074 H 0.0 **** 0.06
13060 H 22.611319235792138 96.45472768715749 48.09322738705055 H 0.0 **** 0.06
13061 C 97.15236467115437 44.61395922140085 9.466001533912674 C 0.0 **** -0.24
13062 H 96.72307978439147 43.82077202032164 8.855465551800279 H 0.0 **** 0.06
13063 H 97.06452208949293 44.34962637358839 10.520250368280387 H 0.0 **** 0.06
13064 H 96.61704609056363 45.54537978547641 9.27972615340866 H 0.0 **** 0.06
13065 H 98.20359785119132 44.74209593706968 9.209179643966337 H 0.0 **** 0.06
13066 C 23.349867668333474 57.2520651613911 109.27395377490978 C 0.0 **** -0.24
13067 H 24.159663283771323 56.57825713405238 109.55488715816102 H 0.0 **** 0.06
13068 H 22.394767579704478 56.805796053553046 109.55122700374231 H 0.0 **** 0.06
13069 H 23.373603177403737 57.41983146774541 108.19658248748054 H 0.0 **** 0.06
13070 H 23.472303002735032 58.20210334433024 109.79282727180417 H 0.0 **** 0.06
13071 C 37.22484421613632 76.77463673386137 44.45692266821197 C 0.0 **** -0.24
13072 H 38.19365488735758 76.39402533490207 44.77839197109188 H 0.0 **** 0.06
13073 H 36.792811761299106 77.38543339033274 45.24892019219544 H 0.0 **** 0.06
13074 H 36.56061333698972 75.93818931296346 44.23840308569342 H 0.0 **** 0.06
13075 H 37.35345410900686 77.38063908812865 43.55983215081815 H 0.0 **** 0.06
13076 C 20.12394808847704 35.37932397074212 11.695895452519068 C 0.0 **** -0.24
13077 H 19.27984228902561 35.91321444459874 11.258612790401742 H 0.0 **** 0.06
13078 H 19.765340049524294 34.718713437405256 12.486169962855485 H 0.0 **** 0.06
13079 H 20.829231082299362 36.09750954328791 12.114214850809844 H 0.0 **** 0.06
13080 H 20.619301130148628 34.78904573224304 10.925107097809672 H 0.0 **** 0.06
13081 C 84.35667812460692 6.520979476578816 97.62395830851318 C 0.0 **** -0.24
13082 H 83.99546012534141 5.609188493920527 98.10027283024775 H 0.0 **** 0.06
13083 H 85.42992358901886 6.617031657511035 97.79238322093977 H 0.0 **** 0.06
13084 H 83.8426632375247 7.38175725384562 98.05246744418204 H 0.0 **** 0.06
13085 H 84.1588276529253 6.47424789850092 96.55355743445756 H 0.0 **** 0.06
13086 C 54.193203542547714 42.586938120855 108.51444028760358 C 0.0 **** -0.24
13087 H 53.613214178543544 42.57731355319961 109.43678588001137 H 0.0 **** 0.06
13088 H 54.250400742514856 43.6067906708959 108.13236823813986 H 0.0 **** 0.06
13089 H 53.71029152497754 41.94807006862389 107.77510726370161 H 0.0 **** 0.06
13090 H 55.19853022604953 42.21650406616612 108.71351709138278 H 0.0 **** 0.06
13091 C 67.9104778417614 60.37849813338704 0.056276357885394646 C 0.0 **** -0.24
13092 H 68.33416036499779 60.57666098621314 -0.9280418389829777 H 0.0 **** 0.06
13093 H 68.22610925470872 59.39153272832141 0.3966069396167313 H 0.0 **** 0.06
13094 H 66.82261574882159 60.41135403674909 -0.0037677047853890144 H 0.0 **** 0.06
13095 H 68.25902599851747 61.134444782264666 0.7603080356932708 H 0.0 **** 0.06
13096 C 51.02921323969201 56.957712983714714 8.38008609452066 C 0.0 **** -0.24
13097 H 51.569655904201966 56.987754341242066 9.326764513631193 H 0.0 **** 0.06
13098 H 51.12772962726535 55.967206533964315 7.9373896295326265 H 0.0 **** 0.06
13099 H 51.445959683453964 57.70303500452678 7.702014371184019 H 0.0 **** 0.06
13100 H 49.97627685864944 57.17518684635286 8.556150773905545 H 0.0 **** 0.06
13101 C 79.95558095334246 87.94285688743776 23.192541227035207 C 0.0 **** -0.24
13102 H 79.31038269034715 87.33663596081715 22.55704606731979 H 0.0 **** 0.06
13103 H 80.99660216055538 87.78761995896116 22.907723537452114 H 0.0 **** 0.06
13104 H 79.8164931859906 87.65252543428397 24.23360987983878 H 0.0 **** 0.06
13105 H 79.69913670513588 88.99631481347643 23.071423172198536 H 0.0 **** 0.06
13106 C 4.292672718349165 89.16841111880507 28.939014530959987 C 0.0 **** -0.24
13107 H 5.373612662861984 89.28937404119384 28.87285936317687 H 0.0 **** 0.06
13108 H 3.8419298086057445 89.39439571339926 27.9724331608818 H 0.0 **** 0.06
13109 H 3.896557186656665 89.84889395347872 29.692757410566955 H 0.0 **** 0.06
13110 H 4.058591215271976 88.14098076714842 29.218008189214068 H 0.0 **** 0.06
13111 C 108.45902541864942 89.0166811902567 84.18699707475335 C 0.0 **** -0.24
13112 H 108.18564191826248 88.78818764176302 85.21745082237891 H 0.0 **** 0.06
13113 H 107.92608574593432 88.34679679595175 83.51212824224672 H 0.0 **** 0.06
13114 H 109.53314664931376 88.88422175319856 84.05865458912473 H 0.0 **** 0.06
13115 H 108.1913639310381 90.04969603025077 83.96181388504937 H 0.0 **** 0.06
13116 C 13.462018860262717 25.438973761545697 97.63354805300276 C 0.0 **** -0.24
13117 H 13.974471056381688 26.06554520919879 98.36350811790817 H 0.0 **** 0.06
13118 H 13.381557263873148 24.422897069065783 98.02017944299206 H 0.0 **** 0.06
13119 H 14.02852150954567 25.43064821803432 96.7022096721206 H 0.0 **** 0.06
13120 H 12.464434724111626 25.838347413174162 97.44963413471646 H 0.0 **** 0.06
13121 C 40.98124540416994 86.63866510939806 5.062325833333915 C 0.0 **** -0.24
13122 H 41.454910939172464 86.85979953670139 6.018548209966525 H 0.0 **** 0.06
13123 H 40.76582100970606 85.57156116061748 5.002315371056824 H 0.0 **** 0.06
13124 H 41.65347334772436 86.9205808980775 4.25160403231888 H 0.0 **** 0.06
13125 H 40.053148349281074 87.20295999317761 4.977397525408406 H 0.0 **** 0.06
13126 C 78.13186475575961 34.01101176593985 90.80222957508252 C 0.0 **** -0.24
13127 H 78.56650663745702 33.40177155432293 91.59471082506371 H 0.0 **** 0.06
13128 H 78.89417942972972 34.676658910396114 90.39699758620338 H 0.0 **** 0.06
13129 H 77.31052801233429 34.60192434877039 91.20668472412842 H 0.0 **** 0.06
13130 H 77.75652719929343 33.362397214724766 90.0094101019557 H 0.0 **** 0.06
13131 C 31.611491557710025 80.93592832227094 54.929069129716225 C 0.0 **** -0.24
13132 H 31.63947593451637 79.9293920311587 55.34601430953495 H 0.0 **** 0.06
13133 H 32.28810119030281 81.58139408877193 55.49060645172631 H 0.0 **** 0.06
13134 H 30.595971090603598 81.32835753876502 54.99649545620463 H 0.0 **** 0.06
13135 H 31.919712161318387 80.9059681277279 53.884472974943776 H 0.0 **** 0.06
13136 C 25.790709493062224 58.71904782859349 78.39690554541005 C 0.0 **** -0.24
13137 H 25.577564720964574 59.78294299490693 78.49908232832973 H 0.0 **** 0.06
13138 H 25.42544236226911 58.36652254274617 77.43288297096035 H 0.0 **** 0.06
13139 H 25.29272972076174 58.17062133314437 79.19730877036858 H 0.0 **** 0.06
13140 H 26.866205644033528 58.55642628191367 78.46037165042793 H 0.0 **** 0.06
13141 C 47.538426682206705 38.3495818092842 77.98375756765302 C 0.0 **** -0.24
13142 H 47.12122522039573 38.344647047086426 76.97673804274353 H 0.0 **** 0.06
13143 H 48.20460581584567 37.49503128376389 78.10479691311212 H 0.0 **** 0.06
13144 H 46.729523081188546 38.28664952530437 78.71198297820672 H 0.0 **** 0.06
13145 H 48.09830719598503 39.272119583254295 78.1405206011359 H 0.0 **** 0.06
13146 C 24.062919440554936 62.6363822737527 87.40528231063058 C 0.0 **** -0.24
13147 H 25.028177067296024 63.05328171098404 87.69521054245804 H 0.0 **** 0.06
13148 H 24.206977304795533 61.63019919883425 87.0090440151391 H 0.0 **** 0.06
13149 H 23.610338290607146 63.26699736853891 86.64084292461416 H 0.0 **** 0.06
13150 H 23.40925068194913 62.59321602430765 88.27651796503322 H 0.0 **** 0.06
13151 C 108.6454595203019 14.25907060331346 41.3577646384522 C 0.0 **** -0.24
13152 H 107.93614077873065 13.550128962086628 40.92982253682207 H 0.0 **** 0.06
13153 H 108.10006551117954 15.06675566440223 41.84640660629351 H 0.0 **** 0.06
13154 H 109.27042429877781 14.669981539198798 40.56569905116308 H 0.0 **** 0.06
13155 H 109.27222297688903 13.749118895465177 42.08906179804432 H 0.0 **** 0.06
13156 C 78.34291201591726 52.1401802033556 76.35999761618322 C 0.0 **** -0.24
13157 H 78.48265153178562 51.828305409518244 75.32484896807502 H 0.0 **** 0.06
13158 H 79.28367953817136 52.52905014508674 76.75127428624367 H 0.0 **** 0.06
13159 H 78.02585827315445 51.28574390536046 76.9566559710165 H 0.0 **** 0.06
13160 H 77.58128178530102 52.91789027655362 76.40506542544311 H 0.0 **** 0.06
13161 C 106.33566459107325 23.35269640140828 46.45142311758764 C 0.0 **** -0.24
13162 H 107.0113382954705 22.578499488214817 46.81392122415696 H 0.0 **** 0.06
13163 H 106.4873856860454 24.26612328845664 47.0258382321486 H 0.0 **** 0.06
13164 H 105.30419149739144 23.018163709322806 46.56722002947433 H 0.0 **** 0.06
13165 H 106.53840238455496 23.547548401832415 45.398709588064634 H 0.0 **** 0.06
13166 C 68.19902036767917 27.87099752305369 71.44160991569169 C 0.0 **** -0.24
13167 H 68.95739785683611 27.26608025189421 70.94439022567576 H 0.0 **** 0.06
13168 H 67.2907670304415 27.88290062039607 70.83908280130947 H 0.0 **** 0.06
13169 H 68.56981474802468 28.8892167280639 71.5622579394846 H 0.0 **** 0.06
13170 H 67.98102978876693 27.4464239166756 72.42087853259005 H 0.0 **** 0.06
13171 C 52.709601986504424 19.75760366476689 66.21956117161413 C 0.0 **** -0.24
13172 H 52.5663270881594 18.895115535727427 66.86962286623036 H 0.0 **** 0.06
13173 H 52.56617997378805 19.458004854392357 65.18151955459298 H 0.0 **** 0.06
13174 H 53.720731898595034 20.146112526079946 66.34976872383203 H 0.0 **** 0.06
13175 H 51.98736135902843 20.532271150513196 66.47724993050147 H 0.0 **** 0.06
13176 C 95.2714527134986 97.1048077284058 9.555272906644035 C 0.0 **** -0.24
13177 H 95.29643868214617 96.1175570813131 9.093989272237764 H 0.0 **** 0.06
13178 H 95.1567355704006 97.86457983932429 8.780769093034749 H 0.0 **** 0.06
13179 H 96.20170235413684 97.27653211907446 10.096989697960097 H 0.0 **** 0.06
13180 H 94.43218040414285 97.16233576983531 10.248203086221636 H 0.0 **** 0.06
13181 C 36.441328976242396 96.67475098798866 93.0757900297587 C 0.0 **** -0.24
13182 H 36.6330267103447 95.61170067386706 93.21857901894896 H 0.0 **** 0.06
13183 H 35.45947022454922 96.92504811680391 93.4784232453793 H 0.0 **** 0.06
13184 H 36.46772549491672 96.90829105214328 92.01038442349963 H 0.0 **** 0.06
13185 H 37.2055411676442 97.25441873036297 93.59284199069415 H 0.0 **** 0.06
13186 C 38.559141977102826 72.41037114499862 45.14267445336327 C 0.0 **** -0.24
13187 H 38.207784674099855 72.26760868047963 46.16400671973264 H 0.0 **** 0.06
13188 H 38.168524911151025 71.61469118663818 44.50812937603564 H 0.0 **** 0.06
13189 H 39.648564209264975 72.38657978530513 45.12649170793253 H 0.0 **** 0.06
13190 H 38.21234232064313 73.37454050681063 44.77071588173533 H 0.0 **** 0.06
13191 C 99.15809781644327 15.860403128901737 98.33950642911665 C 0.0 **** -0.24
13192 H 98.10875022978252 16.14719500209327 98.26853593226947 H 0.0 **** 0.06
13193 H 99.78673792595839 16.73870842783333 98.19118862265893 H 0.0 **** 0.06
13194 H 99.38436567493878 15.118262600928404 97.57301044460006 H 0.0 **** 0.06
13195 H 99.35258616721012 15.43469147566745 99.32410412407566 H 0.0 **** 0.06
13196 C 4.0414928101168925 82.0098537680406 78.30801262150521 C 0.0 **** -0.24
13197 H 4.023640087970122 82.63148752626367 79.20335417469718 H 0.0 **** 0.06
13198 H 4.901758418040316 82.28062739570004 77.69463791249802 H 0.0 **** 0.06
13199 H 3.125264477309841 82.16796943818922 77.73871583380071 H 0.0 **** 0.06
13200 H 4.115445967118177 80.9615625914405 78.59534381212859 H 0.0 **** 0.06
13201 C 1.7892067501582005 99.44621067026247 62.43082797698037 C 0.0 **** -0.24
13202 H 1.149476270664934 100.02883736385957 63.093670929460245 H 0.0 **** 0.06
13203 H 2.6631023977402037 99.09873352471323 62.981549997105105 H 0.0 **** 0.06
13204 H 2.108985601397592 100.06932273720042 61.594925094850225 H 0.0 **** 0.06
13205 H 1.2331868265501953 98.58851654741204 62.05133040936988 H 0.0 **** 0.06
13206 C 38.319863475249804 66.30802759835645 18.695804589819375 C 0.0 **** -0.24
13207 H 38.2564670254593 66.99146368026364 19.542665707532947 H 0.0 **** 0.06
13208 H 37.34622907442258 66.24344019099331 18.20810658207951 H 0.0 **** 0.06
13209 H 38.6158799106841 65.32000424529298 19.048157890942406 H 0.0 **** 0.06
13210 H 39.05858850392826 66.67700966148712 17.98513783183364 H 0.0 **** 0.06
13211 C 16.541880884529036 44.59594074374718 86.40609085153746 C 0.0 **** -0.24
13212 H 16.81456174686201 43.81568277750631 85.69570407635895 H 0.0 **** 0.06
13213 H 17.249403829208887 45.42096477882524 86.33018761452524 H 0.0 **** 0.06
13214 H 16.56514279913533 44.18977260283023 87.41788881261796 H 0.0 **** 0.06
13215 H 15.537341716850264 44.95546685707647 86.18266351429351 H 0.0 **** 0.06
13216 C 11.767022960745692 56.73529228088819 103.69353102778268 C 0.0 **** -0.24
13217 H 12.505219289469352 57.521999879392695 103.53332448234806 H 0.0 **** 0.06
13218 H 12.13313790350082 55.80257506363307 103.26252376927641 H 0.0 **** 0.06
13219 H 10.829028105404245 57.01400564105427 103.21407799544664 H 0.0 **** 0.06
13220 H 11.60482400846282 56.60238114602049 104.76278208348546 H 0.0 **** 0.06
13221 C 54.17861778141361 31.721421208748275 15.131839759945699 C 0.0 **** -0.24
13222 H 53.54149142962956 32.56319594576279 15.403136712538846 H 0.0 **** 0.06
13223 H 53.55897781931907 30.89225927119208 14.790165155083123 H 0.0 **** 0.06
13224 H 54.75682052060131 31.408610481181256 16.002750720503045 H 0.0 **** 0.06
13225 H 54.85742256263751 32.02102656720838 14.33367097746305 H 0.0 **** 0.06
13226 C 1.9581253311035454 25.231426711543634 42.658823011242106 C 0.0 **** -0.24
13227 H 2.808679596758992 25.676866958176305 43.17526970111632 H 0.0 **** 0.06
13228 H 2.3118585858474745 24.452978138611826 41.981756244017674 H 0.0 **** 0.06
13229 H 1.436231496063698 25.999463312290573 42.08994672892129 H 0.0 **** 0.06
13230 H 1.2775227448980502 24.794597807705657 43.38991628985826 H 0.0 **** 0.06
13231 C 53.112622264573275 91.39664310935002 11.799695909226173 C 0.0 **** -0.24
13232 H 52.23632573105917 92.01071331575922 12.003565524944207 H 0.0 **** 0.06
13233 H 53.06709508965665 90.48768289798569 12.399742035836425 H 0.0 **** 0.06
13234 H 54.01399359794994 91.9547465303285 12.0526860575754 H 0.0 **** 0.06
13235 H 53.1338467153754 91.1335656643609 10.741612941035584 H 0.0 **** 0.06
13236 C 21.04830096567275 0.7709973800712078 83.22486244885408 C 0.0 **** -0.24
13237 H 19.968790391550783 0.8679586435665385 83.33727743577998 H 0.0 **** 0.06
13238 H 21.547286594825835 1.4720803632169037 83.89330966843977 H 0.0 **** 0.06
13239 H 21.32770079982876 0.988736906703565 82.19353950562135 H 0.0 **** 0.06
13240 H 21.349580200846503 -0.24695880387562852 83.47481610674947 H 0.0 **** 0.06
13241 C 70.40318970611035 72.81370169763426 21.24260999091895 C 0.0 **** -0.24
13242 H 71.34834644808072 72.4956868990291 21.68235882746915 H 0.0 **** 0.06
13243 H 69.58229260878264 72.52981690923167 21.901924913699723 H 0.0 **** 0.06
13244 H 70.27409396292852 72.33214102350934 20.273328124501138 H 0.0 **** 0.06
13245 H 70.4085412873461 73.8955622257105 21.11324676561804 H 0.0 **** 0.06
13246 C 32.22147039779102 22.344199682732494 6.102269074708772 C 0.0 **** -0.24
13247 H 32.61429473687997 23.070352828136734 6.814235647024304 H 0.0 **** 0.06
13248 H 32.6639482236146 22.522773771479365 5.121699110310885 H 0.0 **** 0.06
13249 H 31.139349899656565 22.448746636900225 6.036956005170396 H 0.0 **** 0.06
13250 H 32.47092937606223 21.337484613698393 6.436877349954727 H 0.0 **** 0.06
13251 C 102.5044274649479 110.50350907592866 24.308324867681687 C 0.0 **** -0.24
13252 H 103.04670038599852 111.44978984211059 24.293573461155887 H 0.0 **** 0.06
13253 H 101.72268710957462 110.54597068653521 25.067834475464597 H 0.0 **** 0.06
13254 H 103.1949192287629 109.69379104967902 24.54106613571491 H 0.0 **** 0.06
13255 H 102.0539330122838 110.32854204691608 23.331333559090105 H 0.0 **** 0.06
13256 C 88.62198400022277 98.23974080989925 22.008529584308775 C 0.0 **** -0.24
13257 H 88.83672604116433 98.29984116518746 23.075959950551777 H 0.0 **** 0.06
13258 H 88.07835100380674 99.13107372475822 21.696013167901327 H 0.0 **** 0.06
13259 H 88.01503203893623 97.3560406427441 21.810287084077572 H 0.0 **** 0.06
13260 H 89.55707436022689 98.17004566089317 21.453116838573237 H 0.0 **** 0.06
13261 C 103.34786209647541 88.45965419933142 43.63032670931614 C 0.0 **** -0.24
13262 H 103.14173375205175 87.42680139705311 43.91056395053113 H 0.0 **** 0.06
13263 H 102.42532461721473 88.93480469007578 43.29489503907945 H 0.0 **** 0.06
13264 H 104.07959190352301 88.47788820834843 42.82338328957752 H 0.0 **** 0.06
13265 H 103.74287836752347 88.9986327264338 44.49142776093822 H 0.0 **** 0.06
13266 C 74.124153104394 5.059429093384352 37.97787314634513 C 0.0 **** -0.24
13267 H 74.3427694040043 5.106183327925521 39.044197971548215 H 0.0 **** 0.06
13268 H 74.04662972690771 4.016659673008434 37.66779111628972 H 0.0 **** 0.06
13269 H 74.92628116910477 5.544701241836378 37.421456700330566 H 0.0 **** 0.06
13270 H 73.18153708509246 5.569405079610277 37.777024179315504 H 0.0 **** 0.06
13271 C 43.48759199798256 109.97886837455428 57.271207494230474 C 0.0 **** -0.24
13272 H 43.57351510678486 108.93904756450084 56.954575732541876 H 0.0 **** 0.06
13273 H 43.63515957810468 110.04290760751078 58.34949481297552 H 0.0 **** 0.06
13274 H 42.49707855871172 110.35486611326041 57.01572649344593 H 0.0 **** 0.06
13275 H 44.24525209922816 110.57557854844208 56.76464969765795 H 0.0 **** 0.06
13276 C 4.876769147668057 87.78004178492114 5.130691474280013 C 0.0 **** -0.24
13277 H 5.854095631595783 88.2578515479949 5.063725076522175 H 0.0 **** 0.06
13278 H 4.725267112984028 87.13808450510716 4.262756724572256 H 0.0 **** 0.06
13279 H 4.099421170307124 88.54434367077324 5.157422232014511 H 0.0 **** 0.06
13280 H 4.826715957908192 87.18051213283759 6.040319238622303 H 0.0 **** 0.06
13281 C 81.75724491760337 91.96066135430073 10.064107856997936 C 0.0 **** -0.24
13282 H 82.09864236298807 90.92499912137865 10.084314996411536 H 0.0 **** 0.06
13283 H 80.86674798430761 92.06118283270337 10.684274250398715 H 0.0 **** 0.06
13284 H 81.52134148034884 92.24558355658036 9.039028048177357 H 0.0 **** 0.06
13285 H 82.54401601494979 92.60963132604803 10.449375261581991 H 0.0 **** 0.06
13286 C 43.11448166516328 5.8170126713420025 46.54170020270348 C 0.0 **** -0.24
13287 H 42.969799910785866 5.07411370961743 45.7577933101756 H 0.0 **** 0.06
13288 H 43.95559330752161 6.460667241656656 46.28011687807245 H 0.0 **** 0.06
13289 H 43.32285735652857 5.31398674728495 47.48619914099776 H 0.0 **** 0.06
13290 H 42.21270758092993 6.4198968553457405 46.6414940861232 H 0.0 **** 0.06
13291 C 33.94383251246384 105.71217688591224 11.157232054225886 C 0.0 **** -0.24
13292 H 33.42247321473002 106.07215055868863 12.044209602152506 H 0.0 **** 0.06
13293 H 33.98888294920988 104.6236240580515 11.1801863737345 H 0.0 **** 0.06
13294 H 34.95525702547576 106.11832471244458 11.141735830584366 H 0.0 **** 0.06
13295 H 33.40876929473859 106.03635503460535 10.265020432073015 H 0.0 **** 0.06
13296 C 89.5876808723134 22.469268329729317 75.44878681457112 C 0.0 **** -0.24
13297 H 90.47624830113358 21.88198555398108 75.21630753053887 H 0.0 **** 0.06
13298 H 89.74759328046679 23.504311972427388 75.14656435113102 H 0.0 **** 0.06
13299 H 89.39645548894885 22.428694171367795 76.52131995822978 H 0.0 **** 0.06
13300 H 88.73207479633783 22.061024262843148 74.9105491601938 H 0.0 **** 0.06
13301 C 98.38101650627284 43.881816433710014 104.69166280979171 C 0.0 **** -0.24
13302 H 99.0830736166969 43.136294704386074 105.06673608284073 H 0.0 **** 0.06
13303 H 98.29674789826574 44.694869647467044 105.41330679856202 H 0.0 **** 0.06
13304 H 97.40422042014468 43.42096726811539 104.54653818095697 H 0.0 **** 0.06
13305 H 98.74301300886825 44.27523494315005 103.74150431439315 H 0.0 **** 0.06
13306 C 85.10163557760416 77.71326819751619 34.22690563371842 C 0.0 **** -0.24
13307 H 84.21520997156335 78.31894142263786 34.03602774742623 H 0.0 **** 0.06
13308 H 85.47925356726171 77.31507036262076 33.28476344463246 H 0.0 **** 0.06
13309 H 84.84208078638693 76.88996490634486 34.89258329145348 H 0.0 **** 0.06
13310 H 85.86908588087545 78.33010271142109 34.69464162041034 H 0.0 **** 0.06
13311 C 44.86466504252746 42.79543528484675 23.17029801243686 C 0.0 **** -0.24
13312 H 45.21239739100082 43.23217849219816 22.234352344126677 H 0.0 **** 0.06
13313 H 43.83640055608927 43.10908459666962 23.356153049124757 H 0.0 **** 0.06
13314 H 45.500445239461726 43.13266708203389 23.98750353768652 H 0.0 **** 0.06
13315 H 44.90547220916463 41.70891331027781 23.10089735774136 H 0.0 **** 0.06
13316 C 42.86513812740535 82.33213557273928 42.16813435817451 C 0.0 **** -0.24
13317 H 42.48373938958715 81.75205863189228 41.327365950919386 H 0.0 **** 0.06
13318 H 42.110467785214325 82.37091281829916 42.95380779049009 H 0.0 **** 0.06
13319 H 43.09568346531893 83.34463542998239 41.83508229804593 H 0.0 **** 0.06
13320 H 43.769451976846646 81.86146355755213 42.55358738632876 H 0.0 **** 0.06
13321 C 32.84057153915407 110.30245384006844 56.76071577353389 C 0.0 **** -0.24
13322 H 31.85187079345657 110.24302875276612 57.214124146521556 H 0.0 **** 0.06
13323 H 32.92102093842428 109.55940404531734 55.966709050840336 H 0.0 **** 0.06
13324 H 33.59976542564661 110.10911164918278 57.518920362201925 H 0.0 **** 0.06
13325 H 32.989628999088836 111.29827091300794 56.34310953457191 H 0.0 **** 0.06
13326 C 99.84325943616521 8.412817304098098 5.390046588415913 C 0.0 **** -0.24
13327 H 99.96299803143374 9.049770271225498 6.265904608620929 H 0.0 **** 0.06
13328 H 99.82377061391061 7.367434094728196 5.700935557995493 H 0.0 **** 0.06
13329 H 100.67855407253303 8.573377195983653 4.7081073350815785 H 0.0 **** 0.06
13330 H 98.90975541661261 8.659805479935812 4.884996305369441 H 0.0 **** 0.06
13331 C 76.56609836828608 28.60335970243861 28.271698853847667 C 0.0 **** -0.24
13332 H 75.54798142205277 28.239633027581675 28.130778477378755 H 0.0 **** 0.06
13333 H 76.86264413241531 28.459373318835105 29.311110856120976 H 0.0 **** 0.06
13334 H 76.61017091358536 29.663469755076704 28.02453502832536 H 0.0 **** 0.06
13335 H 77.24248600913052 28.049330277232343 27.620688949809313 H 0.0 **** 0.06
13336 C 107.6787674118014 37.57412124545786 3.5304819134834133 C 0.0 **** -0.24
13337 H 108.43979406762881 36.86241110382841 3.212274784090255 H 0.0 **** 0.06
13338 H 107.8093675061308 38.5118587811661 2.9896855564389 H 0.0 **** 0.06
13339 H 107.77540632874317 37.7556289078438 4.6004826489588595 H 0.0 **** 0.06
13340 H 106.69009742110737 37.16743343419799 3.3191400657360646 H 0.0 **** 0.06
13341 C 67.98144211167235 47.97122078813402 59.45886969449437 C 0.0 **** -0.24
13342 H 67.53532454961311 48.826349760305845 58.95193158107777 H 0.0 **** 0.06
13343 H 67.30050383594437 47.608193814658705 60.228136338404894 H 0.0 **** 0.06
13344 H 68.92309144929743 48.27261923914381 59.92026361233475 H 0.0 **** 0.06
13345 H 68.16982514960864 47.17734713666641 58.73510988546168 H 0.0 **** 0.06
13346 C 56.2315924612296 36.40532649381311 39.695733049603064 C 0.0 **** -0.24
13347 H 55.53401317596499 36.17504452023553 38.891102678796045 H 0.0 **** 0.06
13348 H 56.38331405376182 35.51673142570317 40.309640343478435 H 0.0 **** 0.06
13349 H 55.8237738559437 37.20694879152711 40.311735827527315 H 0.0 **** 0.06
13350 H 57.18460274684013 36.72203170198955 39.27195487740235 H 0.0 **** 0.06
13351 C 31.595538360227962 103.29081404599286 16.838663163771987 C 0.0 **** -0.24
13352 H 30.652562812666474 103.43667568740526 16.31133570129254 H 0.0 **** 0.06
13353 H 31.897058201665928 102.24638736554397 16.762005471422512 H 0.0 **** 0.06
13354 H 31.46930055819707 103.55655600218059 17.88836501584485 H 0.0 **** 0.06
13355 H 32.362125178340605 103.92447940149415 16.39320320469078 H 0.0 **** 0.06
13356 C 5.056415140587147 38.599365838600505 71.04494802479451 C 0.0 **** -0.24
13357 H 5.229847440176238 39.61890120859192 70.69990509576327 H 0.0 **** 0.06
13358 H 5.024887903505098 38.585420588555195 72.13459903153264 H 0.0 **** 0.06
13359 H 5.865014354661515 37.95595223113435 70.69629915240037 H 0.0 **** 0.06
13360 H 4.1081554080681055 38.23754466782739 70.64807445856283 H 0.0 **** 0.06
13361 C 73.0545200898917 70.5197440171124 53.56832843900213 C 0.0 **** -0.24
13362 H 72.02014204568852 70.82370485127929 53.72637452354476 H 0.0 **** 0.06
13363 H 73.71899904458192 71.34149327552394 53.83568702970115 H 0.0 **** 0.06
13364 H 73.20048574034723 70.26007142239995 52.51988154101281 H 0.0 **** 0.06
13365 H 73.27815083509165 69.65465026376769 54.19150397710919 H 0.0 **** 0.06
13366 C 97.22418961575987 85.45306948529111 44.24183428342163 C 0.0 **** -0.24
13367 H 97.8483349534384 85.42690255998275 45.134450979526406 H 0.0 **** 0.06
13368 H 96.17848585359921 85.33688141268885 44.525877737781784 H 0.0 **** 0.06
13369 H 97.51211985702153 84.64042799762501 43.573628622525675 H 0.0 **** 0.06
13370 H 97.35867430663463 86.40723949869721 43.73212142617149 H 0.0 **** 0.06
13371 C 52.23405298556122 68.63127191649377 86.46901703493151 C 0.0 **** -0.24
13372 H 52.48531961299142 67.61522637070038 86.1639378887518 H 0.0 **** 0.06
13373 H 51.45098475728429 69.02190951367686 85.81947863825181 H 0.0 **** 0.06
13374 H 53.11957917340533 69.26255470085198 86.39187965842349 H 0.0 **** 0.06
13375 H 51.88160989531701 68.62361211890658 87.50118659714674 H 0.0 **** 0.06
13376 C 51.397303135931125 78.87774003391627 70.9164623987821 C 0.0 **** -0.24
13377 H 51.089471750606535 78.48887358286481 69.94464782347029 H 0.0 **** 0.06
13378 H 50.80373850523302 79.75999249251768 71.15810140492832 H 0.0 **** 0.06
13379 H 52.452958075243 79.14616366826215 70.88208056931052 H 0.0 **** 0.06
13380 H 51.24144055705247 78.11348922298208 71.67810949894766 H 0.0 **** 0.06
13381 C 24.169841039740987 39.25863942996813 39.842395505304864 C 0.0 **** -0.24
13382 H 24.26149155731042 40.34143849913232 39.93068546902296 H 0.0 **** 0.06
13383 H 24.916937200592486 38.77866619361933 40.47407479309314 H 0.0 **** 0.06
13384 H 24.32677145840495 38.965415405421794 38.80481553223484 H 0.0 **** 0.06
13385 H 23.173513466004948 38.95234223517187 40.16081679040815 H 0.0 **** 0.06
13386 C 104.9420971233913 58.46863097416173 109.7916961931313 C 0.0 **** -0.24
13387 H 105.20031957709341 58.33721111103711 108.74120312568405 H 0.0 **** 0.06
13388 H 104.39822040283275 57.59183758664392 110.14477020364113 H 0.0 **** 0.06
13389 H 104.31614096871033 59.35406819941318 109.90349313052874 H 0.0 **** 0.06
13390 H 105.85301848803715 58.59199927448611 110.37690062704708 H 0.0 **** 0.06
13391 C 24.44152884802898 77.41025996573983 9.684088801207743 C 0.0 **** -0.24
13392 H 25.52463106210228 77.30432890519137 9.615350281870253 H 0.0 **** 0.06
13393 H 24.1057811668765 77.07970338162379 10.66671209776566 H 0.0 **** 0.06
13394 H 23.967797053476183 76.80100830509066 8.913583517513624 H 0.0 **** 0.06
13395 H 24.169512911653605 78.455829258427 9.53818151505524 H 0.0 **** 0.06
13396 C 12.418013776502463 77.86955152653314 38.32993090025596 C 0.0 **** -0.24
13397 H 12.479176025401266 77.69473673908544 37.25529665860319 H 0.0 **** 0.06
13398 H 13.253424283491857 77.37743575135715 38.82611331537743 H 0.0 **** 0.06
13399 H 11.479839649392751 77.46513728177257 38.709910054687874 H 0.0 **** 0.06
13400 H 12.458100696585227 78.94118475080853 38.52564245732301 H 0.0 **** 0.06
13401 C 16.106691420842914 35.8522683589938 84.67539703176138 C 0.0 **** -0.24
13402 H 17.06840411057122 35.46008079793427 84.3437822255205 H 0.0 **** 0.06
13403 H 15.505773883850551 36.122044829315655 83.80704889196534 H 0.0 **** 0.06
13404 H 16.268891931276848 36.73570144170765 85.29305852718016 H 0.0 **** 0.06
13405 H 15.584940420850547 35.0930738182866 85.25736458595668 H 0.0 **** 0.06
13406 C 1.067564032868333 103.88197050956194 35.770524451275634 C 0.0 **** -0.24
13407 H 1.0674400359245766 104.30123369476615 34.76477644201452 H 0.0 **** 0.06
13408 H 1.703951509570544 102.99647645850473 35.79465069568255 H 0.0 **** 0.06
13409 H 0.05004750231904609 103.60557136425092 36.04860609889536 H 0.0 **** 0.06
13410 H 1.4477225757863295 104.62293486775962 36.47264050587938 H 0.0 **** 0.06
13411 C 60.864384286325475 26.042221185775617 74.45274515061608 C 0.0 **** -0.24
13412 H 60.867735737106386 26.000867399931053 73.36327812864009 H 0.0 **** 0.06
13413 H 60.19629443076053 25.273834254793087 74.84230672725974 H 0.0 **** 0.06
13414 H 60.51905058966909 27.023940460615307 74.77715945933811 H 0.0 **** 0.06
13415 H 61.8736537987142 25.871144435042623 74.82610488015372 H 0.0 **** 0.06
13416 C 42.10716491808114 96.96417383562644 45.21931960064279 C 0.0 **** -0.24
13417 H 41.25619787043922 97.29888212214365 45.811753673596286 H 0.0 **** 0.06
13418 H 42.58925333033079 97.82603659729415 44.7575414153975 H 0.0 **** 0.06
13419 H 41.76369716637657 96.280295331571 44.442909370398525 H 0.0 **** 0.06
13420 H 42.82072894408287 96.45218368438715 45.86491870053095 H 0.0 **** 0.06
13421 C 76.38940848806028 106.62985757579384 8.316786458155377 C 0.0 **** -0.24
13422 H 76.10963754703972 107.49654198893467 7.71772879025167 H 0.0 **** 0.06
13423 H 76.42202782911228 106.9116596701663 9.369826036539337 H 0.0 **** 0.06
13424 H 77.37090390626109 106.27302639353964 8.004866635402578 H 0.0 **** 0.06
13425 H 75.653407893484 105.8384512838319 8.175163944533693 H 0.0 **** 0.06
13426 C 109.4780023347127 18.684692217967385 75.19666831527152 C 0.0 **** -0.24
13427 H 108.49584919033606 18.32694993653853 74.88744768393133 H 0.0 **** 0.06
13428 H 109.55677053217768 18.63626594343688 76.28331833339865 H 0.0 **** 0.06
13429 H 109.60777050300956 19.715828765366155 74.86861290105224 H 0.0 **** 0.06
13430 H 110.24941617285002 18.06002585439311 74.74705701324626 H 0.0 **** 0.06
13431 C 102.48344978856997 99.1460027962702 2.9927922717552633 C 0.0 **** -0.24
13432 H 102.44656310065047 98.22790390632717 3.5782830745836804 H 0.0 **** 0.06
13433 H 103.25027350473546 99.05561733309315 2.22363911913925 H 0.0 **** 0.06
13434 H 102.72097217026595 99.98555067686802 3.6473977176411267 H 0.0 **** 0.06
13435 H 101.51445907265577 99.31578897983631 2.5228152472229226 H 0.0 **** 0.06
13436 C 40.48654490447311 60.7856364037014 12.85908427308653 C 0.0 **** -0.24
13437 H 41.47241318495975 60.774037340592486 12.393614662117741 H 0.0 **** 0.06
13438 H 40.56241049006928 61.215753220022165 13.858609037491131 H 0.0 **** 0.06
13439 H 40.10451817806799 59.76773080927644 12.928044037029942 H 0.0 **** 0.06
13440 H 39.80777884758167 61.38877514004952 12.254638969887239 H 0.0 **** 0.06
13441 C 41.83655713793388 48.13469687083361 43.1235341892966 C 0.0 **** -0.24
13442 H 41.779562588347005 47.147896138422084 43.58327398722969 H 0.0 **** 0.06
13443 H 41.181428295817454 48.167733892769775 42.25257694300833 H 0.0 **** 0.06
13444 H 42.86270512540591 48.333087925562694 42.815545580083715 H 0.0 **** 0.06
13445 H 41.52053042011647 48.88950610219064 43.84490230901816 H 0.0 **** 0.06
13446 C 16.927624736599128 95.14147879132055 40.03460787892391 C 0.0 **** -0.24
13447 H 16.57404690997646 96.17186599372307 39.99306654488697 H 0.0 **** 0.06
13448 H 16.71527329905001 94.72449008339584 41.01918902327054 H 0.0 **** 0.06
13449 H 18.001799816190015 95.11824509212425 39.852902649200246 H 0.0 **** 0.06
13450 H 16.416731348869092 94.55310204364311 39.27193395149936 H 0.0 **** 0.06
13451 C 106.97280316246011 108.37728647027743 18.34192292214115 C 0.0 **** -0.24
13452 H 106.58329173700538 109.39568238118412 18.36152921572352 H 0.0 **** 0.06
13453 H 106.87241989378846 107.93147751314022 19.331386055706673 H 0.0 **** 0.06
13454 H 108.02425470413347 108.39709236523652 18.055907020512223 H 0.0 **** 0.06
13455 H 106.41028591426839 107.78750733945306 17.618372897340066 H 0.0 **** 0.06
13456 C 79.81719416824538 56.37567674953232 98.36879306971773 C 0.0 **** -0.24
13457 H 78.95530761687868 56.91798501957754 98.75790238235052 H 0.0 **** 0.06
13458 H 79.64399813951664 55.302851662175556 98.4625602378535 H 0.0 **** 0.06
13459 H 80.70513685759644 56.65091045342098 98.93664502887034 H 0.0 **** 0.06
13460 H 79.96228779409674 56.6305970514432 97.31889011097854 H 0.0 **** 0.06
13461 C 27.555337401526046 5.69929223901365 93.8334867521644 C 0.0 **** -0.24
13462 H 27.45871140444067 5.0272232298689215 94.68658254383595 H 0.0 **** 0.06
13463 H 28.595475488043093 6.006547490404532 93.72974837656325 H 0.0 **** 0.06
13464 H 26.93063710279258 6.578312650823598 93.99176934136452 H 0.0 **** 0.06
13465 H 27.235097809145735 5.184701704919275 92.9275243254641 H 0.0 **** 0.06
13466 C 68.40772714845963 84.6948721701134 26.81852900579414 C 0.0 **** -0.24
13467 H 68.09053952566791 85.52860711504292 27.44531988781179 H 0.0 **** 0.06
13468 H 69.20085268488046 85.02620513244761 26.148372251633166 H 0.0 **** 0.06
13469 H 67.56078394104384 84.33835001320304 26.23286028292094 H 0.0 **** 0.06
13470 H 68.77877593789799 83.8873289024576 27.450390894404322 H 0.0 **** 0.06
13471 C 38.79083996546825 41.27061993212061 82.04745099303614 C 0.0 **** -0.24
13472 H 38.3956344046814 41.764144779589 82.93521138294194 H 0.0 **** 0.06
13473 H 39.23452571264295 40.315393718474525 82.32990562689399 H 0.0 **** 0.06
13474 H 39.55156779444502 41.90306634254654 81.5903772404883 H 0.0 **** 0.06
13475 H 37.983040665212116 41.10045707920119 81.33594582279143 H 0.0 **** 0.06
13476 C 65.60867332528392 103.14202068425851 76.65821842452823 C 0.0 **** -0.24
13477 H 65.64562626264382 103.93497180674444 75.91093484178134 H 0.0 **** 0.06
13478 H 66.56007133113144 102.60978371181828 76.66968117769949 H 0.0 **** 0.06
13479 H 64.80627181834996 102.44728020584812 76.41217743580796 H 0.0 **** 0.06
13480 H 65.42462339109335 103.57756601734984 77.64037147836854 H 0.0 **** 0.06
13481 C 93.24433724463182 1.96117095023655 13.741752114719219 C 0.0 **** -0.24
13482 H 93.22171496949517 1.6390452549695738 14.783131984598683 H 0.0 **** 0.06
13483 H 92.22409728159766 2.092616926445743 13.380850298710513 H 0.0 **** 0.06
13484 H 93.74879241374526 1.2056271191631822 13.139323496155328 H 0.0 **** 0.06
13485 H 93.78243201930417 2.9054341266925405 13.665137848021402 H 0.0 **** 0.06
13486 C 68.12207563379957 33.30643444749445 45.709459312609624 C 0.0 **** -0.24
13487 H 68.87058323920805 33.7870873697056 45.079038900596856 H 0.0 **** 0.06
13488 H 67.95855645539447 32.28515975196189 45.36408957955666 H 0.0 **** 0.06
13489 H 67.18755522639873 33.86320765459916 45.65072372690287 H 0.0 **** 0.06
13490 H 68.47213369234248 33.29004768247231 46.74056912998719 H 0.0 **** 0.06
13491 C 78.10736844517152 79.43831279301494 70.37025794642577 C 0.0 **** -0.24
13492 H 78.07356140908223 79.87877878810926 69.37412768918757 H 0.0 **** 0.06
13493 H 78.97297144400045 78.78010664356046 70.44767154241589 H 0.0 **** 0.06
13494 H 77.19718738409017 78.86469057693014 70.54500552533005 H 0.0 **** 0.06
13495 H 78.18563649231612 80.23126210131005 71.11543869224897 H 0.0 **** 0.06
13496 C 32.396612401214725 51.33796412823375 0.8552948678220673 C 0.0 **** -0.24
13497 H 31.413931099416402 50.99126069433851 0.5340675844531688 H 0.0 **** 0.06
13498 H 32.280577316845864 52.0658367400018 1.6580239806614827 H 0.0 **** 0.06
13499 H 32.909664240930994 51.80311858263212 0.013429150218769337 H 0.0 **** 0.06
13500 H 32.981083908132575 50.49034835216801 1.2132282264682885 H 0.0 **** 0.06
13501 C 15.441822519614735 103.12115235324663 91.30565062519139 C 0.0 **** -0.24
13502 H 14.375494074526998 103.3055389915923 91.17717526046903 H 0.0 **** 0.06
13503 H 15.960765388826083 103.32200177114015 90.36812699015232 H 0.0 **** 0.06
13504 H 15.598915395448774 102.08179059320457 91.59229612462497 H 0.0 **** 0.06
13505 H 15.832524938743472 103.77647537327437 92.08437272653097 H 0.0 **** 0.06
13506 C 83.85670962457777 89.37942548914326 71.09248993158235 C 0.0 **** -0.24
13507 H 83.31613798066267 88.71615363767735 70.41673367716476 H 0.0 **** 0.06
13508 H 83.95240424420999 90.36401714555825 70.63534606545784 H 0.0 **** 0.06
13509 H 84.84835009676434 88.97003655384974 71.2866950645788 H 0.0 **** 0.06
13510 H 83.30931752807116 89.46534868575924 72.03118947484995 H 0.0 **** 0.06
13511 C 108.41154068508183 83.00205179150146 97.43955361930341 C 0.0 **** -0.24
13512 H 109.37382002952667 83.49199880110757 97.58577293398373 H 0.0 **** 0.06
13513 H 107.66321949201432 83.47414416759324 98.07734824879886 H 0.0 **** 0.06
13514 H 108.49839427778204 81.94722097879173 97.70151578955247 H 0.0 **** 0.06
13515 H 108.11135853086147 83.09445684856172 96.39591302121032 H 0.0 **** 0.06
13516 C 25.116327158454254 103.57123394968812 71.40724118852503 C 0.0 **** -0.24
13517 H 24.88077471358835 103.10720508235636 72.36481989067013 H 0.0 **** 0.06
13518 H 24.881727008103127 102.87734682282655 70.60004780700542 H 0.0 **** 0.06
13519 H 26.176484999371752 103.82102237023366 71.37579616301105 H 0.0 **** 0.06
13520 H 24.52416109142598 104.47954122290116 71.28884752916397 H 0.0 **** 0.06
13521 C 9.522288632393911 20.703551533894057 60.165814147384026 C 0.0 **** -0.24
13522 H 8.486165379148542 21.025605848830537 60.059388685456895 H 0.0 **** 0.06
13523 H 9.902328503200911 20.380311727314677 59.196505902068566 H 0.0 **** 0.06
13524 H 9.574865494074439 19.87485482089852 60.87229428802726 H 0.0 **** 0.06
13525 H 10.124146952798295 21.534341921942485 60.53349961317247 H 0.0 **** 0.06
13526 C 103.24329666686761 82.32059360937353 84.78950580277376 C 0.0 **** -0.24
13527 H 104.19824697070798 81.80398675775125 84.88697898090946 H 0.0 **** 0.06
13528 H 103.39026776592115 83.3886003505974 84.94947397074105 H 0.0 **** 0.06
13529 H 102.54324311309624 81.93414272584249 85.53021456237926 H 0.0 **** 0.06
13530 H 102.84168146516701 82.15443062495422 83.78949487003565 H 0.0 **** 0.06
13531 C 85.48136304033602 5.161519580335096 85.57375499078654 C 0.0 **** -0.24
13532 H 86.33951265346599 4.756630134632303 86.11018253523157 H 0.0 **** 0.06
13533 H 84.79877667476484 5.631518672469866 86.28189159319601 H 0.0 **** 0.06
13534 H 84.96673748173447 4.35521531482695 85.05180895717352 H 0.0 **** 0.06
13535 H 85.82337768894183 5.903210403022939 84.85133165276716 H 0.0 **** 0.06
13536 C 60.78383416668197 56.23869308144373 17.669491278378047 C 0.0 **** -0.24
13537 H 61.839315573998704 56.509413372437194 17.651318980078827 H 0.0 **** 0.06
13538 H 60.32921342509647 56.610209774948686 18.587992270174055 H 0.0 **** 0.06
13539 H 60.68690369056132 55.15367767027277 17.628652777838084 H 0.0 **** 0.06
13540 H 60.28041940806331 56.68062961050532 16.809841117976617 H 0.0 **** 0.06
13541 C 16.3698057515613 84.23477768951508 82.24432704500545 C 0.0 **** -0.24
13542 H 17.107138806055076 84.5142559849744 82.99767002187173 H 0.0 **** 0.06
13543 H 16.831978013780272 84.26075066249881 81.25717155105541 H 0.0 **** 0.06
13544 H 15.536127288562895 84.93580500822968 82.274718069077 H 0.0 **** 0.06
13545 H 16.00541991587704 83.2273385207727 82.44948089240394 H 0.0 **** 0.06
13546 C 1.4698441289014283 55.10096495966275 15.282751935174616 C 0.0 **** -0.24
13547 H 0.7799310795311385 55.86800852203822 14.931803421493612 H 0.0 **** 0.06
13548 H 2.4129620009643418 55.565218316125446 15.572016971194387 H 0.0 **** 0.06
13549 H 1.649233609703387 54.38144202725754 14.483051390170488 H 0.0 **** 0.06
13550 H 1.0381701186043273 54.588693782529425 16.142431239989605 H 0.0 **** 0.06
13551 C 25.239171203189905 25.291205236229693 103.8849817711926 C 0.0 **** -0.24
13552 H 24.99750341349205 26.275327251091994 103.48353779157833 H 0.0 **** 0.06
13553 H 24.823689306745433 25.197268953926404 104.88838373876808 H 0.0 **** 0.06
13554 H 26.32246249456375 25.17170798930631 103.92704352952006 H 0.0 **** 0.06
13555 H 24.81322512106898 24.521906667849073 103.24113523371511 H 0.0 **** 0.06
13556 C 23.418338459050403 100.4449510729936 54.88331497578889 C 0.0 **** -0.24
13557 H 23.7335390073398 100.62583616021314 53.85622643286101 H 0.0 **** 0.06
13558 H 23.784983209621572 99.47009476443968 55.20899530065657 H 0.0 **** 0.06
13559 H 22.329527503625485 100.45985112970753 54.93755013144977 H 0.0 **** 0.06
13560 H 23.825975153942693 101.2208882806463 55.53134160384914 H 0.0 **** 0.06
13561 C 54.15896794473355 86.19409836779383 75.05465651528283 C 0.0 **** -0.24
13562 H 54.94472480023981 85.574283778781 74.62142467210637 H 0.0 **** 0.06
13563 H 54.45937167238563 87.2416209408961 75.01499744152616 H 0.0 **** 0.06
13564 H 53.99606577212563 85.90174390150324 76.09166010442613 H 0.0 **** 0.06
13565 H 53.237083914919396 86.05948136771897 74.48929131748707 H 0.0 **** 0.06
13566 C 36.95689211029199 22.840474468598146 91.89289956385137 C 0.0 **** -0.24
13567 H 36.086080146859814 23.364484820364197 91.49796989170358 H 0.0 **** 0.06
13568 H 37.07445240164745 21.888827592318876 91.37225030140887 H 0.0 **** 0.06
13569 H 36.817509421979835 22.6576088902097 92.95831843561093 H 0.0 **** 0.06
13570 H 37.8469106548815 23.450384024940547 91.74216140705494 H 0.0 **** 0.06
13571 C 1.1074609173233227 75.34549484627507 83.44965091425976 C 0.0 **** -0.24
13572 H 2.187154501114179 75.37295170393537 83.59294279708249 H 0.0 **** 0.06
13573 H 0.610401209187188 75.64414769404951 84.37278897116283 H 0.0 **** 0.06
13574 H 0.8016928695997052 74.33379079091839 83.18246267808527 H 0.0 **** 0.06
13575 H 0.8295034759322846 76.03253604802936 82.64956351517259 H 0.0 **** 0.06
13576 C 85.08359744036011 50.31560603956967 69.21731338585836 C 0.0 **** -0.24
13577 H 85.98199338646003 50.866626121934075 69.49343522182363 H 0.0 **** 0.06
13578 H 85.22312874673398 49.86303403925709 68.23521442629962 H 0.0 **** 0.06
13579 H 84.23443161193825 50.998224906525024 69.1852570462955 H 0.0 **** 0.06
13580 H 84.8952217288655 49.535118768378084 69.95376086342655 H 0.0 **** 0.06
13581 C 24.989468425725235 4.331072820323826 54.99120502626454 C 0.0 **** -0.24
13582 H 24.36982205265636 5.223656232635818 55.079062697704785 H 0.0 **** 0.06
13583 H 26.002970272337663 4.557894670161872 55.322836769069 H 0.0 **** 0.06
13584 H 25.012142115777067 4.005879979177962 53.950994344865535 H 0.0 **** 0.06
13585 H 24.572782668831152 3.5372982000435087 55.611040935105734 H 0.0 **** 0.06
13586 C 10.740543131843822 9.564615692547008 27.365658199697805 C 0.0 **** -0.24
13587 H 9.753917218992854 9.16103843355971 27.592121022633734 H 0.0 **** 0.06
13588 H 10.876147779399446 9.606692914125887 26.284693054084443 H 0.0 **** 0.06
13589 H 11.504918891324536 8.923463912001651 27.803402151399553 H 0.0 **** 0.06
13590 H 10.827153398072085 10.568349829184456 27.781506930638443 H 0.0 **** 0.06
13591 C 56.38404331369997 43.847812788736064 52.64803527027101 C 0.0 **** -0.24
13592 H 56.271839338051755 43.33549955585846 51.69334208910496 H 0.0 **** 0.06
13593 H 57.38142996024619 44.283320600489446 52.71211005167726 H 0.0 **** 0.06
13594 H 56.24601983201208 43.13426990951291 53.46052885284416 H 0.0 **** 0.06
13595 H 55.63619165248855 44.63747240891439 52.727182976848894 H 0.0 **** 0.06
13596 C 11.559404095865006 8.46580321826873 10.303319230523982 C 0.0 **** -0.24
13597 H 11.887549844037636 8.206397671204144 11.309954154939788 H 0.0 **** 0.06
13598 H 12.254310054210748 9.185048901937629 9.86876643196507 H 0.0 **** 0.06
13599 H 10.563271613121685 8.905486304422414 10.348965384281271 H 0.0 **** 0.06
13600 H 11.533138378777409 7.567263172856638 9.687490040876853 H 0.0 **** 0.06
13601 C 47.14846012234958 51.91490563362462 76.37439995592302 C 0.0 **** -0.24
13602 H 47.18786698682678 52.72586285923044 75.64672472624716 H 0.0 **** 0.06
13603 H 47.81220688499924 52.14313913276284 77.20861782927307 H 0.0 **** 0.06
13604 H 47.46682704731407 50.985876524958265 75.90039025120097 H 0.0 **** 0.06
13605 H 46.12773481903071 51.80459576125994 76.73978234652881 H 0.0 **** 0.06
13606 C 38.76271174813169 78.49351946963327 95.33201935387197 C 0.0 **** -0.24
13607 H 38.08238072519544 78.57149162376145 96.17982048255355 H 0.0 **** 0.06
13608 H 39.53497005749305 77.7561489731229 95.55269699475673 H 0.0 **** 0.06
13609 H 39.226428978016614 79.46239669087777 95.14855284966376 H 0.0 **** 0.06
13610 H 38.205826954812665 78.18337003666285 94.44711740933585 H 0.0 **** 0.06
13611 C 23.243284290493506 49.941626918890876 37.168178421679954 C 0.0 **** -0.24
13612 H 22.839816185709537 50.73377286641548 37.798243478522636 H 0.0 **** 0.06
13613 H 23.511320989991134 49.085078965192565 37.787332442174886 H 0.0 **** 0.06
13614 H 24.130376627507474 50.30659608838033 36.64965217540279 H 0.0 **** 0.06
13615 H 22.49312926477515 49.64141379484721 36.43670645384179 H 0.0 **** 0.06
13616 C 77.10512850410373 61.54942749936487 83.82864051345331 C 0.0 **** -0.24
13617 H 77.08432368967006 60.57260334382583 83.34610198813209 H 0.0 **** 0.06
13618 H 76.09241965140289 61.949407163010605 83.8854015424759 H 0.0 **** 0.06
13619 H 77.73215228871277 62.22800566972778 83.24963653181715 H 0.0 **** 0.06
13620 H 77.51305060704888 61.447763731471895 84.83513783187266 H 0.0 **** 0.06
13621 C 96.37613505206434 30.044827572845747 57.054675905713566 C 0.0 **** -0.24
13622 H 97.11612010988568 30.56532293091047 56.44694947527631 H 0.0 **** 0.06
13623 H 95.3998336579474 30.509922007950195 56.9170695771474 H 0.0 **** 0.06
13624 H 96.66231849817586 30.10295355774585 58.104756440293244 H 0.0 **** 0.06
13625 H 96.32710662749128 28.999300134823642 56.75004935879946 H 0.0 **** 0.06
13626 C 107.73322326570597 26.080167007857597 72.94605423341703 C 0.0 **** -0.24
13627 H 108.18373903358496 25.125296708181395 72.67498230298901 H 0.0 **** 0.06
13628 H 108.42993044278555 26.88783067754676 72.71985017193099 H 0.0 **** 0.06
13629 H 107.50473068055781 26.0843460949456 74.01187429814863 H 0.0 **** 0.06
13630 H 106.81510619329102 26.222448065241394 72.37647733026442 H 0.0 **** 0.06
13631 C 29.10565614809306 69.50686046802372 62.36612978016748 C 0.0 **** -0.24
13632 H 28.384584056201675 69.10126657698635 63.07637931801747 H 0.0 **** 0.06
13633 H 29.389419838405814 70.51433593878727 62.671922393999495 H 0.0 **** 0.06
13634 H 28.658181965590757 69.53988067209747 61.37274050295861 H 0.0 **** 0.06
13635 H 29.99011982833801 68.87025083578516 62.345203710755385 H 0.0 **** 0.06
13636 C 36.688835790826836 84.48919610349527 6.691527529219401 C 0.0 **** -0.24
13637 H 36.20755220621552 84.67460639365385 7.651941441298925 H 0.0 **** 0.06
13638 H 36.83833560810393 83.41704629190303 6.561772577309659 H 0.0 **** 0.06
13639 H 37.65323188822845 84.99706611829691 6.663923545675782 H 0.0 **** 0.06
13640 H 36.05569855335647 84.86790068358768 5.889307610514601 H 0.0 **** 0.06
13641 C 95.72086177336735 65.4378622213377 55.38114917435081 C 0.0 **** -0.24
13642 H 95.75205176317161 65.139061611535 54.333686965879906 H 0.0 **** 0.06
13643 H 95.96090907827426 64.58092066114432 56.010387742829494 H 0.0 **** 0.06
13644 H 94.72232817831298 65.79953582716459 55.625680506842116 H 0.0 **** 0.06
13645 H 96.44737933032968 66.23105206987702 55.554053117631554 H 0.0 **** 0.06
13646 C 79.96581665968773 31.56710591188625 20.83464916884713 C 0.0 **** -0.24
13647 H 80.81315277197933 32.247432257196344 20.746931842770728 H 0.0 **** 0.06
13648 H 80.27318922063643 30.672485707524906 21.3763331520505 H 0.0 **** 0.06
13649 H 79.61953188891056 31.288259694326612 19.838732783090464 H 0.0 **** 0.06
13650 H 79.15847355468 32.06048468969481 21.375266587666477 H 0.0 **** 0.06
13651 C 47.09544774907108 49.7347026987496 13.52031002937531 C 0.0 **** -0.24
13652 H 46.99985028051471 50.130372432643554 14.53136260383928 H 0.0 **** 0.06
13653 H 47.166133641835145 50.56142989740175 12.812796479695596 H 0.0 **** 0.06
13654 H 46.222688481773986 49.1270117039235 13.283826227453108 H 0.0 **** 0.06
13655 H 47.99490810213469 49.12161564331862 13.453675729131977 H 0.0 **** 0.06
13656 C 56.88308440040275 104.53921505836718 56.60014720107183 C 0.0 **** -0.24
13657 H 57.97389650212793 104.55986635400079 56.598323736366844 H 0.0 **** 0.06
13658 H 56.53033341445981 103.91977459092655 55.77568375749375 H 0.0 **** 0.06
13659 H 56.50162794490769 105.5539598276458 56.4813245621524 H 0.0 **** 0.06
13660 H 56.52991035339833 104.1262632209521 57.54415701006498 H 0.0 **** 0.06
13661 C 101.26364770893804 76.72181071020023 89.88997414459931 C 0.0 **** -0.24
13662 H 100.36751113139547 77.08414194031917 90.39380055323483 H 0.0 **** 0.06
13663 H 100.99607344199734 76.33554867436567 88.90570616417011 H 0.0 **** 0.06
13664 H 101.71676145652401 75.92631263856299 90.48105404740352 H 0.0 **** 0.06
13665 H 101.97313129850949 77.5407164250322 89.778116570691 H 0.0 **** 0.06
13666 C 52.1106557734954 91.2549310875925 91.95208296218723 C 0.0 **** -0.24
13667 H 51.12345806616829 91.29703251974729 91.4928021700552 H 0.0 **** 0.06
13668 H 52.82704758803888 91.78446680518854 91.32201903726869 H 0.0 **** 0.06
13669 H 52.41797141830681 90.21429153563048 92.05783347975745 H 0.0 **** 0.06
13670 H 52.07459195095312 91.72468545061551 92.93456549517683 H 0.0 **** 0.06
13671 C 94.48495524190268 52.09650683156235 55.23566232307331 C 0.0 **** -0.24
13672 H 94.9967047530065 52.97888978007987 55.62046035408753 H 0.0 **** 0.06
13673 H 94.95416433963287 51.783553527970724 54.30279963457758 H 0.0 **** 0.06
13674 H 93.43755232855015 52.335008510829084 55.05352839458175 H 0.0 **** 0.06
13675 H 94.55335897976147 51.29000128449874 55.96550302327023 H 0.0 **** 0.06
13676 C 71.03301130419139 92.07944280283799 29.713651980936362 C 0.0 **** -0.24
13677 H 71.05270300989274 90.99063939799326 29.655016025602407 H 0.0 **** 0.06
13678 H 69.99912822815503 92.42484097892424 29.700064055441345 H 0.0 **** 0.06
13679 H 71.5677777776257 92.49894803464116 28.862769025688465 H 0.0 **** 0.06
13680 H 71.51163595835283 92.4012246313141 30.63872691923376 H 0.0 **** 0.06
13681 C 108.49860282277619 27.320117510654768 50.14360901838615 C 0.0 **** -0.24
13682 H 108.49138521065727 26.79908420881543 49.18650196583123 H 0.0 **** 0.06
13683 H 109.37244538555895 27.968288874021198 50.19800313325943 H 0.0 **** 0.06
13684 H 108.5350326662807 26.590840081354997 50.95347325217778 H 0.0 **** 0.06
13685 H 107.59308025216814 27.920922026286576 50.23681640239235 H 0.0 **** 0.06
13686 C 77.34104122224258 104.24570021110493 22.83453919432828 C 0.0 **** -0.24
13687 H 77.01386188010076 104.96120950109122 22.079667746719245 H 0.0 **** 0.06
13688 H 77.59699376444732 104.77701168290159 23.75162489666362 H 0.0 **** 0.06
13689 H 78.21583473054994 103.70788470080699 22.46884050190494 H 0.0 **** 0.06
13690 H 76.53750547271028 103.53743569180176 23.03616606412758 H 0.0 **** 0.06
13691 C 78.14701572190722 101.37196583953937 52.10733591039093 C 0.0 **** -0.24
13692 H 79.14547394787894 101.08492827475104 52.43870789195731 H 0.0 **** 0.06
13693 H 78.218582860097 102.2364740316545 51.44674185848828 H 0.0 **** 0.06
13694 H 77.53605272887549 101.62477362475613 52.9736205941102 H 0.0 **** 0.06
13695 H 77.6901114854455 100.54140183800277 51.57078432055778 H 0.0 **** 0.06
13696 C 23.914636707062364 7.42787912218148 103.93406244861434 C 0.0 **** -0.24
13697 H 24.517553716125278 7.649730358820165 104.8149653216092 H 0.0 **** 0.06
13698 H 22.920389802338708 7.1060281435674995 104.24648340374989 H 0.0 **** 0.06
13699 H 24.39043229995403 6.633299355579027 103.35987585333396 H 0.0 **** 0.06
13700 H 23.830312409773324 8.322746716415736 103.318226361893 H 0.0 **** 0.06
13701 C 65.89408622870789 96.56928742275171 53.28874447984953 C 0.0 **** -0.24
13702 H 66.44769459109415 96.4131507752777 52.3620088430572 H 0.0 **** 0.06
13703 H 65.43796299218592 97.55923458403767 53.27566975638916 H 0.0 **** 0.06
13704 H 66.57545734185885 96.49316924161846 54.13601253156659 H 0.0 **** 0.06
13705 H 65.11623866983412 95.81171910402122 53.377975023259836 H 0.0 **** 0.06
13706 C 39.838543277270986 3.543007106342671 34.78706996710412 C 0.0 **** -0.24
13707 H 40.52512658207036 3.7835469563453046 33.975615927513665 H 0.0 **** 0.06
13708 H 40.23658055987087 3.9293154554173526 35.725568198421236 H 0.0 **** 0.06
13709 H 39.72629104166839 2.4601558001796775 34.85798767588345 H 0.0 **** 0.06
13710 H 38.86816261653769 3.9965511373719806 34.58905774802145 H 0.0 **** 0.06
13711 C 91.55901396441357 50.405373524328866 38.63033295713563 C 0.0 **** -0.24
13712 H 90.51239803347067 50.134603396782154 38.49519115490597 H 0.0 **** 0.06
13713 H 91.76014169683992 51.34537235192374 38.116182603496625 H 0.0 **** 0.06
13714 H 92.19341807063168 49.6218668868662 38.217216198507735 H 0.0 **** 0.06
13715 H 91.76923791964987 50.5203457038632 39.69362408060315 H 0.0 **** 0.06
13716 C 91.37134130462903 40.81619178918385 1.166624146790043 C 0.0 **** -0.24
13717 H 91.34089112477665 40.37939131701535 2.1646992213419303 H 0.0 **** 0.06
13718 H 92.04252926718416 41.67476935817055 1.1656311853160046 H 0.0 **** 0.06
13719 H 90.36958355300862 41.1365674556549 0.8791774465386988 H 0.0 **** 0.06
13720 H 91.73225720504377 40.071329258936686 0.45570546264450673 H 0.0 **** 0.06
13721 C 85.84162390313648 59.12857847473603 32.43017805833949 C 0.0 **** -0.24
13722 H 86.24978871647153 60.12997934029275 32.56604016212374 H 0.0 **** 0.06
13723 H 85.06692320616128 59.15364265801753 31.662571750102273 H 0.0 **** 0.06
13724 H 85.41153994080085 58.780140773904634 33.36952023138065 H 0.0 **** 0.06
13725 H 86.6370862199114 58.44983347622684 32.12080657479754 H 0.0 **** 0.06
13726 C 26.111021148391075 75.85033491419674 64.51620037773745 C 0.0 **** -0.24
13727 H 26.566583897869947 76.83469250823936 64.62905203677082 H 0.0 **** 0.06
13728 H 26.881496644292724 75.12025336511905 64.26695710813414 H 0.0 **** 0.06
13729 H 25.369689245644707 75.88342171126476 63.71898653512548 H 0.0 **** 0.06
13730 H 25.627559803847305 75.56467155781206 65.45105564288605 H 0.0 **** 0.06
13731 C 20.997011928745493 18.02169869473613 30.17202073916758 C 0.0 **** -0.24
13732 H 21.529696158075332 18.10401550150192 29.223944660472092 H 0.0 **** 0.06
13733 H 19.942819132401578 17.8228131684142 29.97959460413076 H 0.0 **** 0.06
13734 H 21.09555792453436 18.955868555138636 30.7255919873134 H 0.0 **** 0.06
13735 H 21.420066480502268 17.205204991979656 30.75616502699077 H 0.0 **** 0.06
13736 C 59.93665318894679 40.06562958291235 19.388811639565517 C 0.0 **** -0.24
13737 H 59.35095191878743 40.955186134748814 19.61919579999679 H 0.0 **** 0.06
13738 H 60.01454549490535 39.95192970130037 18.307171265170638 H 0.0 **** 0.06
13739 H 59.44635722176365 39.18802339747012 19.812584082457533 H 0.0 **** 0.06
13740 H 60.93391778969152 40.16596146952017 19.816828631392298 H 0.0 **** 0.06
13741 C 66.22772040525724 50.37017381922998 45.42851915930797 C 0.0 **** -0.24
13742 H 66.31247725203598 51.00807478299787 44.54878774266825 H 0.0 **** 0.06
13743 H 66.3521396995957 49.32783793320063 45.13278019130016 H 0.0 **** 0.06
13744 H 65.24568764355739 50.50494434113412 45.881229069461256 H 0.0 **** 0.06
13745 H 67.0003471913132 50.63916063031332 46.147890142366066 H 0.0 **** 0.06
13746 C 73.4901955336973 60.93226926319204 72.05543195396027 C 0.0 **** -0.24
13747 H 73.17098289375394 60.89106526387462 71.01394923125915 H 0.0 **** 0.06
13748 H 74.58028127750381 60.92085297884091 72.10159031533588 H 0.0 **** 0.06
13749 H 73.09359973331298 60.07009279376143 72.59125209190046 H 0.0 **** 0.06
13750 H 73.1178004666373 61.848757179450786 72.51332446839928 H 0.0 **** 0.06
13751 C 88.7367379218183 89.3889392695844 90.74354548578236 C 0.0 **** -0.24
13752 H 89.63380544359131 89.9477056801203 90.4787896766129 H 0.0 **** 0.06
13753 H 87.85952216414157 89.89904501042454 90.34342242288068 H 0.0 **** 0.06
13754 H 88.65634762978726 89.32319986792658 91.82853555856207 H 0.0 **** 0.06
13755 H 88.79692904778281 88.38533428465507 90.3226241270313 H 0.0 **** 0.06
13756 C 91.06777231933688 21.739967239022093 87.82257479187254 C 0.0 **** -0.24
13757 H 91.98131226638678 21.810265739716044 87.23204653372318 H 0.0 **** 0.06
13758 H 91.32339865473544 21.55172294804575 88.86612262466457 H 0.0 **** 0.06
13759 H 90.45306689374002 20.92171103688071 87.446319821159 H 0.0 **** 0.06
13760 H 90.51390795456113 22.674957443535547 87.74785373117231 H 0.0 **** 0.06
13761 C 58.44626737899995 9.720004801432026 67.38134741059727 C 0.0 **** -0.24
13762 H 59.211902026450275 10.09443924882548 66.70156275113845 H 0.0 **** 0.06
13763 H 57.51131320116508 10.252724423661789 67.20321178917861 H 0.0 **** 0.06
13764 H 58.76547395470368 9.88045094660049 68.41150757614682 H 0.0 **** 0.06
13765 H 58.296416046573654 8.654636940075633 67.20898272962562 H 0.0 **** 0.06
13766 C 40.839906393658154 65.43648955999475 47.15424471261795 C 0.0 **** -0.24
13767 H 41.56887987219538 65.11017079467132 47.89600913794584 H 0.0 **** 0.06
13768 H 41.098197313080746 66.43655431415856 46.806907715959056 H 0.0 **** 0.06
13769 H 39.84690851434295 65.45103345201973 47.603426651873264 H 0.0 **** 0.06
13770 H 40.8467313091528 64.745495229891 46.311339033782275 H 0.0 **** 0.06
13771 C 10.760796021025541 12.487533925460667 10.223559913555931 C 0.0 **** -0.24
13772 H 10.437136979565096 12.972039279366896 11.144651173425473 H 0.0 **** 0.06
13773 H 9.942164291372293 11.892044553557781 9.820310369974635 H 0.0 **** 0.06
13774 H 11.613028102743826 11.841567037523504 10.43392145090553 H 0.0 **** 0.06
13775 H 11.050646525956381 13.247243420240949 9.49688876617401 H 0.0 **** 0.06
13776 C 58.69204537819246 65.20559224734455 57.49712711061284 C 0.0 **** -0.24
13777 H 57.673716500835496 65.41554754388693 57.17075036918055 H 0.0 **** 0.06
13778 H 59.221704684788676 64.66579994553541 56.711594128759316 H 0.0 **** 0.06
13779 H 58.66617472255513 64.59836588429027 58.40125515548931 H 0.0 **** 0.06
13780 H 59.208198121749604 66.14313656419608 57.7044981459228 H 0.0 **** 0.06
13781 C 99.17335388067175 88.79536119264826 35.591096665987095 C 0.0 **** -0.24
13782 H 99.65925386207964 89.71986705097763 35.28077456259973 H 0.0 **** 0.06
13783 H 99.60960891878065 88.45257491755143 36.52949682522643 H 0.0 **** 0.06
13784 H 99.31740680575507 88.03376566929997 34.82348358557914 H 0.0 **** 0.06
13785 H 98.1067236290214 88.97416492602832 35.7298118551779 H 0.0 **** 0.06
13786 C 47.9872459718315 76.48953647720828 42.515649051747744 C 0.0 **** -0.24
13787 H 48.824130531920616 77.1670902913263 42.344144438498006 H 0.0 **** 0.06
13788 H 47.362208074348416 76.88183403078347 43.31864783880616 H 0.0 **** 0.06
13789 H 48.367283396186224 75.50736430061568 42.79628777081827 H 0.0 **** 0.06
13790 H 47.39702432004435 76.4036210235355 41.60316141777514 H 0.0 **** 0.06
13791 C 39.262198503936986 67.81520912590517 73.4761325438227 C 0.0 **** -0.24
13792 H 38.26494298165409 67.55346783723013 73.8292651451504 H 0.0 **** 0.06
13793 H 39.23681105527328 68.80187873374398 73.01321428763674 H 0.0 **** 0.06
13794 H 39.59375117719571 67.0783187551502 72.7446996149834 H 0.0 **** 0.06
13795 H 39.953872073241484 67.82610858347134 74.31923020696146 H 0.0 **** 0.06
13796 C 15.408719878018431 66.46352186302543 29.08656305499474 C 0.0 **** -0.24
13797 H 15.049099900099218 67.27368388334469 28.45171209974535 H 0.0 **** 0.06
13798 H 16.31824411743406 66.77972265719086 29.598114115643938 H 0.0 **** 0.06
13799 H 15.622197274863613 65.58878717351243 28.47275337335458 H 0.0 **** 0.06
13800 H 14.645097421838354 66.21405705518956 29.824184809679423 H 0.0 **** 0.06
13801 C 68.4516319204231 34.758312639949 42.26239806294112 C 0.0 **** -0.24
13802 H 69.53516401829722 34.6932725420298 42.36098155396675 H 0.0 **** 0.06
13803 H 67.9797156146721 34.20398317438645 43.07352725512868 H 0.0 **** 0.06
13804 H 68.14801148562321 34.3321419802665 41.30605557877331 H 0.0 **** 0.06
13805 H 68.14458329632623 35.80362425669051 42.309254768234666 H 0.0 **** 0.06
13806 C 35.6480419781567 74.78097841971301 2.182238219293546 C 0.0 **** -0.24
13807 H 35.643046711524335 73.86926140444322 2.7798567248271837 H 0.0 **** 0.06
13808 H 35.70545494516301 75.64741065344263 2.8424970775296323 H 0.0 **** 0.06
13809 H 34.73378035294655 74.83274417461084 1.5926361308893853 H 0.0 **** 0.06
13810 H 36.511025554000014 74.77431209731517 1.5167319317959773 H 0.0 **** 0.06
13811 C 69.96802569514192 45.47147000997663 81.94681057180414 C 0.0 **** -0.24
13812 H 69.34973294575282 45.082289004558874 82.75580065728114 H 0.0 **** 0.06
13813 H 71.01799645454037 45.41509790227424 82.23270090710301 H 0.0 **** 0.06
13814 H 69.69907558909868 46.50998299968083 81.75183010975782 H 0.0 **** 0.06
13815 H 69.80357281961992 44.87850596964586 81.04706747806819 H 0.0 **** 0.06
13816 C 17.075541925448533 101.07865611890412 96.09889974589271 C 0.0 **** -0.24
13817 H 17.42595657059354 100.69063402145662 95.14099823626952 H 0.0 **** 0.06
13818 H 16.37356896369795 101.8938888021122 95.92409884172974 H 0.0 **** 0.06
13819 H 17.926264860786148 101.4467040199861 96.67347439120306 H 0.0 **** 0.06
13820 H 16.578801469987866 100.28274960307397 96.6522625433397 H 0.0 **** 0.06
13821 C 57.189080264952615 9.949692126075547 14.888691639042435 C 0.0 **** -0.24
13822 H 56.990002698529786 10.439113398434301 15.84237329515895 H 0.0 **** 0.06
13823 H 56.37040156893177 10.15259153954031 14.198594740728481 H 0.0 **** 0.06
13824 H 57.27720989859263 8.87456067413126 15.044214140284225 H 0.0 **** 0.06
13825 H 58.12041418586314 10.334271042521834 14.471574179199933 H 0.0 **** 0.06
13826 C 92.1525718307094 84.48984830362554 67.4688101958455 C 0.0 **** -0.24
13827 H 91.80240331652232 85.5216336027417 67.4842958863236 H 0.0 **** 0.06
13828 H 92.3291993984655 84.15138134449444 68.49096511321889 H 0.0 **** 0.06
13829 H 93.08062898368917 84.42864887673926 66.89990483270633 H 0.0 **** 0.06
13830 H 91.3977313952978 83.85687632108761 67.00211637210032 H 0.0 **** 0.06
13831 C 33.75946995388753 49.86195976204769 30.286902828544015 C 0.0 **** -0.24
13832 H 33.01572648000723 49.55870108800616 31.023214930777385 H 0.0 **** 0.06
13833 H 34.41968949434707 50.61132257826901 30.724321727759843 H 0.0 **** 0.06
13834 H 33.25703894670124 50.284791239455075 29.4168963009042 H 0.0 **** 0.06
13835 H 34.344877024346516 48.99461724530781 29.982775847031064 H 0.0 **** 0.06
13836 C 94.14755031752884 59.93221194691807 13.484999058762003 C 0.0 **** -0.24
13837 H 94.22257965163635 58.84740636940188 13.557256703573852 H 0.0 **** 0.06
13838 H 95.14830788338816 60.36556484605819 13.468925332248148 H 0.0 **** 0.06
13839 H 93.59786868060843 60.31654816703099 14.344360166189968 H 0.0 **** 0.06
13840 H 93.62087708834582 60.19916390958588 12.568169332206281 H 0.0 **** 0.06
13841 C 90.79341290322242 72.60417118880282 68.46267215379669 C 0.0 **** -0.24
13842 H 91.52362342138889 71.81056545997669 68.3062360732128 H 0.0 **** 0.06
13843 H 89.78826846163702 72.20721067447974 68.31700889798705 H 0.0 **** 0.06
13844 H 90.97313804594128 73.40923913316236 67.74991186594792 H 0.0 **** 0.06
13845 H 90.88782441187146 72.99026366928551 69.4774252150554 H 0.0 **** 0.06
13846 C 23.16144157036871 26.6566450352679 80.00582662691164 C 0.0 **** -0.24
13847 H 23.33911119162792 26.263325529099262 81.00651587966064 H 0.0 **** 0.06
13848 H 22.521180578597864 27.53628082628407 80.07026618350204 H 0.0 **** 0.06
13849 H 22.672196035423553 25.89470605344161 79.39842102596361 H 0.0 **** 0.06
13850 H 24.11228853716176 26.930803346463023 79.54979926561938 H 0.0 **** 0.06
13851 C 87.18290823393528 109.95476587916644 31.29689471541863 C 0.0 **** -0.24
13852 H 88.09940322801236 110.4702127242393 31.008915147455866 H 0.0 **** 0.06
13853 H 86.32713382783183 110.60020693326359 31.10106646767423 H 0.0 **** 0.06
13854 H 87.22077481756116 109.71225607629896 32.358329493497735 H 0.0 **** 0.06
13855 H 87.08592354674147 109.03618669756975 30.716739500501518 H 0.0 **** 0.06
13856 C 38.4474079299149 33.717854363561344 45.49425399949689 C 0.0 **** -0.24
13857 H 39.15670678308314 33.42860480419575 44.71948015642886 H 0.0 **** 0.06
13858 H 38.23845199120683 32.860372435864896 46.13382251440777 H 0.0 **** 0.06
13859 H 37.522158833670005 34.05968500955185 45.02979767339309 H 0.0 **** 0.06
13860 H 38.872599002263655 34.52396969054535 46.09324934910546 H 0.0 **** 0.06
13861 C 8.04952196971027 20.447490513876 10.990310674986972 C 0.0 **** -0.24
13862 H 8.49300012417558 21.431670317606926 11.142944210674727 H 0.0 **** 0.06
13863 H 8.450782197664665 19.750125155882188 11.726982660884687 H 0.0 **** 0.06
13864 H 8.288071873301533 20.093332897323883 9.987157603202547 H 0.0 **** 0.06
13865 H 6.967584205124695 20.514758629617408 11.103745237087196 H 0.0 **** 0.06
13866 C 104.86639849424822 110.63970165222472 104.03502277053582 C 0.0 **** -0.24
13867 H 104.53061296911466 110.26622715287024 105.00260875073894 H 0.0 **** 0.06
13868 H 104.33934491753777 111.56382911025275 103.79930331210238 H 0.0 **** 0.06
13869 H 104.65843688845268 109.89530406128233 103.26582710237449 H 0.0 **** 0.06
13870 H 105.93881172381248 110.83233672892743 104.0734330787443 H 0.0 **** 0.06
13871 C 28.048651349928207 34.07370895537369 82.36909764244837 C 0.0 **** -0.24
13872 H 28.566660846338728 34.603339098377546 83.16853169019645 H 0.0 **** 0.06
13873 H 27.559868296650727 34.795399692120355 81.71387066827413 H 0.0 **** 0.06
13874 H 27.300163368420023 33.408162255206435 82.79983433034545 H 0.0 **** 0.06
13875 H 28.768025628483564 33.48998353608289 81.79504276921759 H 0.0 **** 0.06
13876 C 89.24181166918709 85.94175472541755 76.62105923979625 C 0.0 **** -0.24
13877 H 89.39479340862988 86.6552211835879 77.43083200769215 H 0.0 **** 0.06
13878 H 88.24372027915553 86.07554662366934 76.2024292134075 H 0.0 **** 0.06
13879 H 89.34058615439199 84.92729830870141 77.00890272843895 H 0.0 **** 0.06
13880 H 89.98783871718894 86.10788907766864 75.84401564709724 H 0.0 **** 0.06
13881 C 98.9314682586173 71.0718613066083 69.42582002314668 C 0.0 **** -0.24
13882 H 99.92748739299715 70.63751850258677 69.50613127283671 H 0.0 **** 0.06
13883 H 98.79696630344452 71.48851111542251 68.42711188605489 H 0.0 **** 0.06
13884 H 98.81956006916501 71.86273341535059 70.16771395891334 H 0.0 **** 0.06
13885 H 98.18312959924658 70.2990911488057 69.60185487598994 H 0.0 **** 0.06
13886 C 49.89593414097628 107.51927846858763 38.14417811532235 C 0.0 **** -0.24
13887 H 49.70282045940223 108.4874941888657 38.60605164209028 H 0.0 **** 0.06
13888 H 49.624422529069896 106.72416776415145 38.838948703632695 H 0.0 **** 0.06
13889 H 50.954579647822 107.43952018558984 37.89656540551721 H 0.0 **** 0.06
13890 H 49.30274382398987 107.42620121726385 37.234658138674774 H 0.0 **** 0.06
13891 C 30.90554716901633 108.21668018099336 10.628373473614204 C 0.0 **** -0.24
13892 H 31.875189503635042 107.9892898103318 11.071200854559379 H 0.0 **** 0.06
13893 H 30.841951382852216 107.76311216816511 9.640065684523393 H 0.0 **** 0.06
13894 H 30.790883399849633 109.29699434167044 10.541567661988154 H 0.0 **** 0.06
13895 H 30.11395407944468 107.81765494203096 11.263634078459006 H 0.0 **** 0.06
13896 C 23.499740787119748 35.30486510300929 9.444862533666557 C 0.0 **** -0.24
13897 H 24.35533222455095 35.684539823909695 8.88645038675 H 0.0 **** 0.06
13898 H 23.50333837894061 35.73084621184081 10.447745797591017 H 0.0 **** 0.06
13899 H 23.56334158073571 34.217605965274984 9.510629994663098 H 0.0 **** 0.06
13900 H 22.57894735832909 35.584084783454344 8.933096430315155 H 0.0 **** 0.06
13901 C 80.84135864833556 19.899381610754347 54.05050795969019 C 0.0 **** -0.24
13902 H 79.9026274469681 20.44315286354444 54.15442267400985 H 0.0 **** 0.06
13903 H 80.64026005776272 18.82816199796747 54.034995565598926 H 0.0 **** 0.06
13904 H 81.49175618137245 20.13497774629485 54.89310469674238 H 0.0 **** 0.06
13905 H 81.32990119498454 20.191987880372068 53.121133719048295 H 0.0 **** 0.06
13906 C 80.00879579029832 8.822461874020576 53.60521285655622 C 0.0 **** -0.24
13907 H 79.85936888923918 8.30960554249259 54.55588197222107 H 0.0 **** 0.06
13908 H 79.23327429508217 8.518465796448936 52.90258457754527 H 0.0 **** 0.06
13909 H 80.98806607459085 8.56062230183332 53.202389612808645 H 0.0 **** 0.06
13910 H 79.95762130248616 9.900438156851408 53.761887973758206 H 0.0 **** 0.06
13911 C 73.39087217966326 88.8699539921208 41.15689294269359 C 0.0 **** -0.24
13912 H 73.85305608991723 89.73208012625588 41.63822268041562 H 0.0 **** 0.06
13913 H 73.92345415323493 88.63882717421816 40.235093886173445 H 0.0 **** 0.06
13914 H 72.34908546185119 89.0975635888065 40.92842172060452 H 0.0 **** 0.06
13915 H 73.43587629753551 88.01227586404556 41.82785015117585 H 0.0 **** 0.06
13916 C 16.470962492243288 36.23612932517295 48.45007369085864 C 0.0 **** -0.24
13917 H 16.827137209861704 36.83548496384151 49.28722664037886 H 0.0 **** 0.06
13918 H 16.1552463975859 35.2570552793249 48.81218162583334 H 0.0 **** 0.06
13919 H 17.273114700778677 36.11344623836902 47.72313189946332 H 0.0 **** 0.06
13920 H 15.6263193885149 36.73764741829905 47.97745505829738 H 0.0 **** 0.06
13921 C 104.82641518577418 90.90012507406504 69.32193482030416 C 0.0 **** -0.24
13922 H 105.80487293600055 90.4212362240259 69.36285726530464 H 0.0 **** 0.06
13923 H 104.63251828196451 91.41033018750682 70.26622319747926 H 0.0 **** 0.06
13924 H 104.05903947270212 90.14511748319819 69.15210323750304 H 0.0 **** 0.06
13925 H 104.81139082168232 91.62385942713547 68.50712958129596 H 0.0 **** 0.06
13926 C 87.65887155379653 7.036203905115002 105.5287854013596 C 0.0 **** -0.24
13927 H 88.23638107100146 7.573818667255608 104.77625706686584 H 0.0 **** 0.06
13928 H 86.7180692635286 7.558193524788663 105.70521853300383 H 0.0 **** 0.06
13929 H 88.22795440905344 6.9876900110870395 106.45634497408726 H 0.0 **** 0.06
13930 H 87.45299969258815 6.025643754729572 105.17436933587871 H 0.0 **** 0.06
13931 C 76.27771861288771 41.056035030948465 48.6125014145647 C 0.0 **** -0.24
13932 H 75.19221692097591 40.957369180662965 48.5933735729221 H 0.0 **** 0.06
13933 H 76.68243265813278 40.46480178303386 49.434324115708016 H 0.0 **** 0.06
13934 H 76.54481625564603 42.10349951957215 48.75156511933197 H 0.0 **** 0.06
13935 H 76.69164157296115 40.698354173991675 47.669777216213845 H 0.0 **** 0.06
13936 C 16.708763257396637 19.238086483196692 72.14560110540137 C 0.0 **** -0.24
13937 H 17.055976522400375 18.456080752459798 71.47008742465135 H 0.0 **** 0.06
13938 H 16.25016433629255 20.03969273629156 71.56732942601553 H 0.0 **** 0.06
13939 H 17.55460579917729 19.632518522912996 72.70853492318474 H 0.0 **** 0.06
13940 H 15.975817321984 18.82184232732924 72.835543645883 H 0.0 **** 0.06
13941 C 59.726403565257215 29.544955401691 85.6248111531952 C 0.0 **** -0.24
13942 H 59.024712372103124 29.18811015299991 86.37877446337615 H 0.0 **** 0.06
13943 H 60.33793268481577 30.343793809472544 86.04714654762438 H 0.0 **** 0.06
13944 H 59.17411699103428 29.925337646917484 84.76639019377257 H 0.0 **** 0.06
13945 H 60.36890009547312 28.723594443006505 85.3091625129847 H 0.0 **** 0.06
13946 C 19.962072884699438 92.80918480827162 51.98917159370083 C 0.0 **** -0.24
13947 H 20.06510814850853 93.58288524755034 52.749230826219616 H 0.0 **** 0.06
13948 H 19.72779150235702 93.27098339143976 51.03037077956739 H 0.0 **** 0.06
13949 H 19.159054522217843 92.12821789486279 52.27151768053639 H 0.0 **** 0.06
13950 H 20.89659105956693 92.2543966546641 51.90649989654432 H 0.0 **** 0.06
13951 C 91.86707915449364 2.2922704055257697 109.49277086988926 C 0.0 **** -0.24
13952 H 92.4111252267769 1.364087338635244 109.31588720103099 H 0.0 **** 0.06
13953 H 92.57546571957937 3.115639345458888 109.59370593373151 H 0.0 **** 0.06
13954 H 91.28175126755224 2.201138208021902 110.40729800314531 H 0.0 **** 0.06
13955 H 91.20010544199164 2.4879463009550307 108.65248651398082 H 0.0 **** 0.06
13956 C 107.02923988845795 6.4625992232509795 107.74607347569717 C 0.0 **** -0.24
13957 H 106.91481394124791 7.125348722416248 108.60371123384004 H 0.0 **** 0.06
13958 H 106.0510099463109 6.2590374833488 107.31094762014514 H 0.0 **** 0.06
13959 H 107.48608765795011 5.527214114265618 108.06924300511052 H 0.0 **** 0.06
13960 H 107.66690945718594 6.940104495650381 107.00234775300116 H 0.0 **** 0.06
13961 C 56.06746134497615 1.2642646544420586 38.01747871874255 C 0.0 **** -0.24
13962 H 56.802166733364345 0.46445199860235675 37.92767664651649 H 0.0 **** 0.06
13963 H 55.0695527164093 0.8601325774948521 37.84534389078294 H 0.0 **** 0.06
13964 H 56.27887355867059 2.0370494130994814 37.278515717508185 H 0.0 **** 0.06
13965 H 56.118796333033856 1.6930179417635998 39.01836486421331 H 0.0 **** 0.06
13966 C 23.58514846629086 80.7675271883329 42.205894201885144 C 0.0 **** -0.24
13967 H 23.95597312465847 80.94175297817895 43.21590567358362 H 0.0 **** 0.06
13968 H 23.63777282868864 81.69410176588202 41.63481108404267 H 0.0 **** 0.06
13969 H 22.5513897294978 80.42685455601276 42.252805861500974 H 0.0 **** 0.06
13970 H 24.197313352854167 80.00645039612081 41.72134179646679 H 0.0 **** 0.06
13971 C 81.03280907182472 94.40900643611663 63.28024090972136 C 0.0 **** -0.24
13972 H 81.83405521235943 94.09475563760631 62.611845248834356 H 0.0 **** 0.06
13973 H 81.45835103956585 94.92872090830797 64.13900785213853 H 0.0 **** 0.06
13974 H 80.47903974487144 93.53403619285177 63.62084529146297 H 0.0 **** 0.06
13975 H 80.35835150708948 95.08029434074075 62.74732689656855 H 0.0 **** 0.06
13976 C 19.109976385570057 47.3560009239088 12.17775845555309 C 0.0 **** -0.24
13977 H 20.108654197102034 47.56060089801045 11.79173485824117 H 0.0 **** 0.06
13978 H 19.187928868138737 46.901010661731505 13.165180859202053 H 0.0 **** 0.06
13979 H 18.5922396597731 46.674574758163196 11.502605286763412 H 0.0 **** 0.06
13980 H 18.551302330754606 48.289805234714386 12.251491852608751 H 0.0 **** 0.06
13981 C 82.60987154409395 37.01393515178495 72.99456670279466 C 0.0 **** -0.24
13982 H 82.8513174953187 36.37374867968862 72.14496329014116 H 0.0 **** 0.06
13983 H 83.28056438630786 37.872613201425395 73.00333063870659 H 0.0 **** 0.06
13984 H 82.72861063568212 36.44947654653828 73.91912833617937 H 0.0 **** 0.06
13985 H 81.579400368746 37.35731629232154 72.90817088224509 H 0.0 **** 0.06
13986 C 17.54385168488985 16.384453168450705 14.40444032141356 C 0.0 **** -0.24
13987 H 16.88598475588388 15.843924712705416 15.0847114476869 H 0.0 **** 0.06
13988 H 17.61684341079525 17.425604702356623 14.720168794537173 H 0.0 **** 0.06
13989 H 17.138100399140043 16.33894991978468 13.393816712765243 H 0.0 **** 0.06
13990 H 18.53484316765395 15.930645429821368 14.41944550983456 H 0.0 **** 0.06
13991 C 46.81458353236505 102.81590361928005 106.64033200153622 C 0.0 **** -0.24
13992 H 46.70678641047013 101.84484462159975 106.15659761257803 H 0.0 **** 0.06
13993 H 46.53707897706843 103.60296830732784 105.93820865162687 H 0.0 **** 0.06
13994 H 47.84958474736976 102.95435355931119 106.95177508645142 H 0.0 **** 0.06
13995 H 46.16292996423937 102.86118828328318 107.51271817803982 H 0.0 **** 0.06
13996 C 28.301345457833122 18.270717051878933 49.846531095347125 C 0.0 **** -0.24
13997 H 29.13930855688966 18.94186638494361 49.658007483410664 H 0.0 **** 0.06
13998 H 28.542568466197025 17.61573336533945 50.684495072138525 H 0.0 **** 0.06
13999 H 28.111010636066993 17.669756715576625 48.957974962185915 H 0.0 **** 0.06
14000 H 27.414008055489603 18.856167326438765 50.08617461051165 H 0.0 **** 0.06
14001 C 107.67386104258004 63.94731552883388 0.5625208733859637 C 0.0 **** -0.24
14002 H 106.84949349023273 63.25534640453073 0.7375255820365112 H 0.0 **** 0.06
14003 H 107.3602868188673 64.71312697900397 -0.14830249391485495 H 0.0 **** 0.06
14004 H 108.52540418937471 63.40158020749594 0.15684990970402168 H 0.0 **** 0.06
14005 H 107.95836261082702 64.41849216467928 1.5026363450551088 H 0.0 **** 0.06
14006 C 109.43303068085851 99.64642844619387 70.55856251550358 C 0.0 **** -0.24
14007 H 109.65111106339077 98.90863368496741 69.785349962537 H 0.0 **** 0.06
14008 H 109.91418728626115 100.59114818069203 70.30460445561482 H 0.0 **** 0.06
14009 H 109.8118619201438 99.29083528395562 71.51633967454495 H 0.0 **** 0.06
14010 H 108.35563968390306 99.79406722350024 70.62583890236806 H 0.0 **** 0.06
14011 C 60.94901876976178 49.2796110291889 30.258377141528676 C 0.0 **** -0.24
14012 H 61.23397224124176 48.318306346072255 30.686105518943783 H 0.0 **** 0.06
14013 H 61.84281982912859 49.807349726026196 29.925448812432236 H 0.0 **** 0.06
14014 H 60.435735846131536 49.87417858367268 31.01332464670999 H 0.0 **** 0.06
14015 H 60.28529206204611 49.11636524723374 29.410014988023995 H 0.0 **** 0.06
14016 C 5.701008027650582 71.02699396675666 98.80000148970305 C 0.0 **** -0.24
14017 H 5.105374573128994 70.76878663635011 99.67508459994463 H 0.0 **** 0.06
14018 H 6.752815661275918 70.82386338504045 99.00311829443183 H 0.0 **** 0.06
14019 H 5.572028958018686 72.08508651378543 98.57182326712507 H 0.0 **** 0.06
14020 H 5.373711210686327 70.42926189040179 97.94896276026367 H 0.0 **** 0.06
14021 C 39.0042851335568 28.043182091568525 99.11485014445543 C 0.0 **** -0.24
14022 H 39.61157970172579 27.522559511102486 99.8560459515391 H 0.0 **** 0.06
14023 H 38.90293612420431 29.09020756494374 99.40037381412151 H 0.0 **** 0.06
14024 H 38.01804062034891 27.58154055082366 99.0651049133595 H 0.0 **** 0.06
14025 H 39.485638866447154 27.976195092005327 98.1392667036746 H 0.0 **** 0.06
14026 C 109.93507513834733 88.552233838392 51.91626195212456 C 0.0 **** -0.24
14027 H 110.95720303142636 88.5981543539591 51.54074684414849 H 0.0 **** 0.06
14028 H 109.91664302510719 87.9876766486978 52.84887988336175 H 0.0 **** 0.06
14029 H 109.29998052067889 88.05892008021647 51.18037874081858 H 0.0 **** 0.06
14030 H 109.56720476953745 89.56265166292684 52.09538469280511 H 0.0 **** 0.06
14031 C 75.53645065136357 22.056286374621624 91.36553618142733 C 0.0 **** -0.24
14032 H 76.20054836969052 22.39868912255936 92.16028545035377 H 0.0 **** 0.06
14033 H 75.74402713591564 21.009029344168344 91.14696257314961 H 0.0 **** 0.06
14034 H 75.70228561905503 22.655888390132255 90.47089944906833 H 0.0 **** 0.06
14035 H 74.50073660335102 22.16255828293469 91.68742342754143 H 0.0 **** 0.06
14036 C 25.799424601005732 90.58453555273428 39.74618297821768 C 0.0 **** -0.24
14037 H 26.58049125878924 90.87784554615934 39.04574969426964 H 0.0 **** 0.06
14038 H 25.16743678468624 89.822362898422 39.287780213404844 H 0.0 **** 0.06
14039 H 25.193959920576628 91.45418434230345 40.001128509331686 H 0.0 **** 0.06
14040 H 26.256194374949057 90.18156070623652 40.65110422857496 H 0.0 **** 0.06
14041 C 16.31266548010302 104.42410108075933 78.19721575895102 C 0.0 **** -0.24
14042 H 15.353455211360995 104.10420365843322 78.6034915273047 H 0.0 **** 0.06
14043 H 16.151652394764028 104.95243863340772 77.25684827139389 H 0.0 **** 0.06
14044 H 16.941736766775932 103.55167140635604 78.02113765274657 H 0.0 **** 0.06
14045 H 16.804458230797138 105.08904107157338 78.90821400242334 H 0.0 **** 0.06
14046 C 37.52209308261973 34.846629850708325 19.115478967168507 C 0.0 **** -0.24
14047 H 37.06138451317719 34.44066933417537 20.01586632120373 H 0.0 **** 0.06
14048 H 38.50699453688094 35.2447768605615 19.35915253361703 H 0.0 **** 0.06
14049 H 36.89567668361724 35.64439617136816 18.715333785003114 H 0.0 **** 0.06
14050 H 37.62321814009724 34.0557953033032 18.371689876338515 H 0.0 **** 0.06
14051 C 87.41085661030672 15.279492202515225 84.8199091851626 C 0.0 **** -0.24
14052 H 87.48532112181715 14.839431404642418 85.81453237067018 H 0.0 **** 0.06
14053 H 88.0404842455317 14.72015538184366 84.12767215003498 H 0.0 **** 0.06
14054 H 87.74152952906715 16.31741400633529 84.85595738691228 H 0.0 **** 0.06
14055 H 86.37452419806641 15.239135195757154 84.48190435749223 H 0.0 **** 0.06
14056 C 97.18238967528337 41.98384744696352 81.7292497811817 C 0.0 **** -0.24
14057 H 97.17450993778668 40.948338642558014 82.06776432844265 H 0.0 **** 0.06
14058 H 97.77947517604468 42.06468114340174 80.82122967011998 H 0.0 **** 0.06
14059 H 97.61369411574225 42.61633281472237 82.50542275885434 H 0.0 **** 0.06
14060 H 96.16140980038531 42.306037718266566 81.52346523705256 H 0.0 **** 0.06
14061 C 65.73895160166515 30.742998825194427 86.6455817753184 C 0.0 **** -0.24
14062 H 66.66501992502485 30.43729933476888 87.13245959769132 H 0.0 **** 0.06
14063 H 65.4011079058769 29.949771680166762 85.97866568876145 H 0.0 **** 0.06
14064 H 65.91385365076918 31.65198423199758 86.06924456427375 H 0.0 **** 0.06
14065 H 64.97691741290988 30.932715404213944 87.40108770857421 H 0.0 **** 0.06
14066 C 71.47527339561793 12.184341493086151 56.58271916889281 C 0.0 **** -0.24
14067 H 72.22556623914636 12.946998841271267 56.36913252210052 H 0.0 **** 0.06
14068 H 70.81552672682415 12.536864983019626 57.37488152688295 H 0.0 **** 0.06
14069 H 71.97050070810553 11.267340190031035 56.9011830188136 H 0.0 **** 0.06
14070 H 70.89204067136741 11.988113749725173 55.68308424895681 H 0.0 **** 0.06
14071 C 96.3785142686108 71.39693940026405 93.86174705406421 C 0.0 **** -0.24
14072 H 96.6266043974915 70.57693702241795 93.18756819165051 H 0.0 **** 0.06
14073 H 96.87262020308344 71.2405719131209 94.82144405939783 H 0.0 **** 0.06
14074 H 95.29922823691068 71.43286496417454 94.00901461347826 H 0.0 **** 0.06
14075 H 96.71726782387682 72.33807481505909 93.4273014896703 H 0.0 **** 0.06
14076 C 64.50624662659766 88.29307548930603 81.07323371451145 C 0.0 **** -0.24
14077 H 64.29390971193443 87.4804121572427 81.76744912924494 H 0.0 **** 0.06
14078 H 64.01419422349969 89.20296070732135 81.4188319232893 H 0.0 **** 0.06
14079 H 64.13307679090777 88.03279543236097 80.08293917425215 H 0.0 **** 0.06
14080 H 65.58266010133589 88.45771749279304 81.02480051629226 H 0.0 **** 0.06
14081 C 78.77323909219774 4.925775139867255 19.658396352166562 C 0.0 **** -0.24
14082 H 79.71788914028878 5.08123157673424 20.17839179012418 H 0.0 **** 0.06
14083 H 78.14629176877258 5.810860343257076 19.773135376269963 H 0.0 **** 0.06
14084 H 78.26211698426653 4.0618811656276534 20.08180284709661 H 0.0 **** 0.06
14085 H 78.9660560807726 4.751470980275315 18.59987408173926 H 0.0 **** 0.06
14086 C 28.248583008144465 7.600763285080006 78.42303656259303 C 0.0 **** -0.24
14087 H 28.95210207331283 6.81554602288594 78.70195692429968 H 0.0 **** 0.06
14088 H 27.266823866001857 7.161454500799607 78.2438368037899 H 0.0 **** 0.06
14089 H 28.59785542174484 8.094638433467594 77.51700246539428 H 0.0 **** 0.06
14090 H 28.179386622367304 8.328781156399941 79.23099234435767 H 0.0 **** 0.06
14091 C 87.98795750323099 1.2461944868557566 88.31682582411443 C 0.0 **** -0.24
14092 H 89.00987196226848 1.2123378840440466 87.94008418213187 H 0.0 **** 0.06
14093 H 87.75002247338267 2.2623689884691203 88.62922136006235 H 0.0 **** 0.06
14094 H 87.89259388002165 0.5717590108107231 89.16840280360805 H 0.0 **** 0.06
14095 H 87.29982652569169 0.9369847572310732 87.52953751882895 H 0.0 **** 0.06
14096 C 93.40670368948238 0.8725264793499923 70.64115014351019 C 0.0 **** -0.24
14097 H 93.48411357167474 -0.17492771835365684 70.93376794813565 H 0.0 **** 0.06
14098 H 93.90240002720151 1.4953866161280782 71.38537261973775 H 0.0 **** 0.06
14099 H 92.35520082399049 1.153335327363954 70.57370464921841 H 0.0 **** 0.06
14100 H 93.88365849629336 1.0137377706128188 69.67121085643913 H 0.0 **** 0.06
14101 C 30.271642702071745 102.58637779793267 8.764359631712198 C 0.0 **** -0.24
14102 H 30.8184671709067 101.8299668360772 9.32729318654253 H 0.0 **** 0.06
14103 H 30.809294603276186 102.81428513329814 7.843646080880186 H 0.0 **** 0.06
14104 H 30.179220106097574 103.49042574603487 9.366224319350287 H 0.0 **** 0.06
14105 H 29.277967273488912 102.20911532882002 8.5209218615986 H 0.0 **** 0.06
14106 C 50.94299235871974 92.7685488341794 88.46157042371874 C 0.0 **** -0.24
14107 H 50.13246730745431 93.25966927375697 88.99936736527212 H 0.0 **** 0.06
14108 H 50.536382849351405 92.23055646046187 87.6040310677858 H 0.0 **** 0.06
14109 H 51.44680453398185 92.06581390993803 89.12558674440453 H 0.0 **** 0.06
14110 H 51.656591372541534 93.51684252774105 88.11620142577743 H 0.0 **** 0.06
14111 C 49.08805434995253 22.072526719934842 5.107299754425753 C 0.0 **** -0.24
14112 H 49.891349358150535 21.458421928135692 5.5153171629457916 H 0.0 **** 0.06
14113 H 48.6641589966232 22.687994072179492 5.900603217932741 H 0.0 **** 0.06
14114 H 48.31265847610871 21.427612528603106 4.693937138352311 H 0.0 **** 0.06
14115 H 49.4841673757532 22.713607041461785 4.321311140315601 H 0.0 **** 0.06
14116 C 55.78504094759996 28.8723516640664 87.88643478790453 C 0.0 **** -0.24
14117 H 55.9543976297791 27.795934049475306 87.886077735806 H 0.0 **** 0.06
14118 H 55.1642734969675 29.141606416182412 88.7412069223056 H 0.0 **** 0.06
14119 H 55.28042272044406 29.160630555096077 86.96482076455789 H 0.0 **** 0.06
14120 H 56.74191801704274 29.390561416440335 87.9545427393839 H 0.0 **** 0.06
14121 C 97.78723718791781 68.07892217770603 97.54131298170864 C 0.0 **** -0.24
14122 H 97.1074130382193 68.66780689202264 96.92591910129357 H 0.0 **** 0.06
14123 H 98.55844156066252 68.7297399529068 97.95573893357852 H 0.0 **** 0.06
14124 H 98.25445776059416 67.30660194441374 96.93001751856593 H 0.0 **** 0.06
14125 H 97.23068096557824 67.61243366174155 98.35343077320243 H 0.0 **** 0.06
14126 C 38.15771204514505 28.91879188111048 90.94985659985383 C 0.0 **** -0.24
14127 H 37.85737601094024 29.83341315288712 91.46171786952814 H 0.0 **** 0.06
14128 H 39.09513064494291 28.55708691525166 91.37427584932152 H 0.0 **** 0.06
14129 H 38.29486656533453 29.125184505869584 89.8885289219404 H 0.0 **** 0.06
14130 H 37.384941976892776 28.16188431879482 91.07594382691923 H 0.0 **** 0.06
14131 C 98.33929387368252 4.607522961331654 65.4950982342086 C 0.0 **** -0.24
14132 H 98.96979278720703 4.927263907622034 64.66564626962068 H 0.0 **** 0.06
14133 H 97.99393179524853 3.5892774425550726 65.3159144312421 H 0.0 **** 0.06
14134 H 97.48108084751642 5.273666027181434 65.5753508332328 H 0.0 **** 0.06
14135 H 98.91303086168607 4.6397750160651015 66.42039079268933 H 0.0 **** 0.06
14136 C 107.30500994870084 82.47697474312733 21.142597491784016 C 0.0 **** -0.24
14137 H 106.32656223039203 82.94849303740057 21.2358461200628 H 0.0 **** 0.06
14138 H 107.37219877048909 81.96642127540942 20.18092257482965 H 0.0 **** 0.06
14139 H 107.43905074330604 81.75521742209385 21.94829046286222 H 0.0 **** 0.06
14140 H 108.08285933972564 83.23874253830202 21.204524358411277 H 0.0 **** 0.06
14141 C 76.24595698837922 47.548512470942455 96.91363731180067 C 0.0 **** -0.24
14142 H 76.54025579482585 46.50014899396179 96.86308069958378 H 0.0 **** 0.06
14143 H 77.1208022778984 48.16113915296137 97.13237007144745 H 0.0 **** 0.06
14144 H 75.50471399772431 47.679236695143835 97.70189090443034 H 0.0 **** 0.06
14145 H 75.81803282989239 47.85227231735994 95.95840352370689 H 0.0 **** 0.06
14146 C 76.5493571460182 74.3343437331347 89.74537287960857 C 0.0 **** -0.24
14147 H 77.5942194373689 74.57163123198858 89.54730691820532 H 0.0 **** 0.06
14148 H 76.0007280298002 75.25318303482084 89.95238534991822 H 0.0 **** 0.06
14149 H 76.48474009693209 73.6695697885175 90.60741117746909 H 0.0 **** 0.06
14150 H 76.1177664394304 73.84110636603418 88.87371861591208 H 0.0 **** 0.06
14151 C 106.97786871628477 1.6791032086159277 22.619072714113315 C 0.0 **** -0.24
14152 H 106.09358952516526 2.2823509312066506 22.828465430274946 H 0.0 **** 0.06
14153 H 107.87146450294676 2.2357412934334207 22.90357474331256 H 0.0 **** 0.06
14154 H 107.01618437371273 1.448209572890221 21.554952080724547 H 0.0 **** 0.06
14155 H 106.92883646864755 0.7526408250503209 23.191452863179677 H 0.0 **** 0.06
14156 C 100.4503153796951 67.46946783605671 13.833642814075105 C 0.0 **** -0.24
14157 H 100.12551731420285 67.33385073482793 14.864892499188084 H 0.0 **** 0.06
14158 H 99.58269639344581 67.66569866540118 13.202679619812034 H 0.0 **** 0.06
14159 H 100.95374602772199 66.56557244005671 13.488921930178428 H 0.0 **** 0.06
14160 H 101.1393017834096 68.31274950394123 13.77807720712173 H 0.0 **** 0.06
14161 C 47.794293124965634 24.58712077193391 51.319498836501396 C 0.0 **** -0.24
14162 H 47.41746349792061 23.901138073669557 50.560771673058525 H 0.0 **** 0.06
14163 H 47.95635763508858 24.044447361641886 52.25031264678125 H 0.0 **** 0.06
14164 H 47.0672180895798 25.382512587441937 51.48277001136677 H 0.0 **** 0.06
14165 H 48.73599606522009 25.01880314075379 50.98159559909874 H 0.0 **** 0.06
14166 C 47.226724681829175 82.67613907672354 41.69319533946668 C 0.0 **** -0.24
14167 H 46.292809565245506 82.27949292456064 42.09215166088325 H 0.0 **** 0.06
14168 H 48.01722124519865 81.93639756831992 41.82003941821902 H 0.0 **** 0.06
14169 H 47.49258113549956 83.58767151644702 42.22802397046125 H 0.0 **** 0.06
14170 H 47.10296406113498 82.89957730818345 40.63368111934006 H 0.0 **** 0.06
14171 C 5.8031229632792645 56.97731708441043 97.0440171942763 C 0.0 **** -0.24
14172 H 6.588666910355528 57.06461174906113 96.2926556715083 H 0.0 **** 0.06
14173 H 6.151558001178415 56.345427202780286 97.86108631207175 H 0.0 **** 0.06
14174 H 4.916610241596402 56.53337272640624 96.59208988906764 H 0.0 **** 0.06
14175 H 5.558058717024167 57.96704308535715 97.42932965046687 H 0.0 **** 0.06
14176 C 102.48035811800435 94.8978975475115 64.62779152191956 C 0.0 **** -0.24
14177 H 102.68134000654123 95.00484307594903 65.6940455712413 H 0.0 **** 0.06
14178 H 102.61104092003046 93.85547845405154 64.33583225502514 H 0.0 **** 0.06
14179 H 103.17346307357184 95.52277699341487 64.06339272991755 H 0.0 **** 0.06
14180 H 101.457273114553 95.2092057793753 64.41870313482514 H 0.0 **** 0.06
14181 C 91.4397662157362 70.07227837560345 60.481859996832725 C 0.0 **** -0.24
14182 H 92.38545599504675 70.36127158247936 60.02239667705902 H 0.0 **** 0.06
14183 H 90.62330144159802 70.61256971888889 60.00163888005966 H 0.0 **** 0.06
14184 H 91.4632256889881 70.31742359721272 61.543023101824474 H 0.0 **** 0.06
14185 H 91.28945342369332 69.00000759717094 60.35953610384513 H 0.0 **** 0.06
14186 C 77.70838384671885 67.38471398776974 100.59187503080285 C 0.0 **** -0.24
14187 H 76.78652680407771 67.64294939137467 100.07133418785571 H 0.0 **** 0.06
14188 H 78.1159298837315 68.27519437507273 101.07139216681927 H 0.0 **** 0.06
14189 H 78.4318994711474 66.99269216933554 99.87670736310714 H 0.0 **** 0.06
14190 H 77.49917922791894 66.62802001529599 101.34806640542958 H 0.0 **** 0.06
14191 C 81.53101520912983 4.688013966681282 88.12596842923676 C 0.0 **** -0.24
14192 H 81.49980816648456 5.094645641366036 87.11492661267079 H 0.0 **** 0.06
14193 H 82.5625408788295 4.4564651549179075 88.39178920208383 H 0.0 **** 0.06
14194 H 80.93114844926372 3.779262198742188 88.17050834274607 H 0.0 **** 0.06
14195 H 81.13146250521496 5.422155985792372 88.82492680886327 H 0.0 **** 0.06
14196 C 57.69168007275343 86.19265291601172 61.231666498829725 C 0.0 **** -0.24
14197 H 58.03323114376886 86.80794491178507 60.399698757340744 H 0.0 **** 0.06
14198 H 56.63707197226472 86.39554918994419 61.42273370465895 H 0.0 **** 0.06
14199 H 58.274580114460264 86.42849685220118 62.122134871259746 H 0.0 **** 0.06
14200 H 57.819780503862376 85.13948288213996 60.98193287453249 H 0.0 **** 0.06
14201 C 14.97757355841507 79.9707659708462 85.35868859158153 C 0.0 **** -0.24
14202 H 15.150985975951212 79.05819956689693 84.78785371726237 H 0.0 **** 0.06
14203 H 15.914164186497196 80.300760975789 85.80978403431877 H 0.0 **** 0.06
14204 H 14.245000953591369 79.77590260410284 86.14117841230254 H 0.0 **** 0.06
14205 H 14.601046188593948 80.7483201342078 84.69415763844864 H 0.0 **** 0.06
14206 C 65.0574685649548 108.23741209515023 16.74879476279471 C 0.0 **** -0.24
14207 H 64.08999293351376 108.50822720004793 17.1694356097409 H 0.0 **** 0.06
14208 H 65.06234872225915 107.17521742096649 16.502446567070326 H 0.0 **** 0.06
14209 H 65.84214167108725 108.44569493995965 17.475840211203234 H 0.0 **** 0.06
14210 H 65.23607759525744 108.82048767979938 15.845105418885439 H 0.0 **** 0.06
14211 C 15.32028757893525 54.83010073374651 71.09486304565291 C 0.0 **** -0.24
14212 H 16.27085046563377 54.33270512498742 71.29021040396495 H 0.0 **** 0.06
14213 H 14.574353507496625 54.08736273210774 70.81143339085426 H 0.0 **** 0.06
14214 H 15.44609318036754 55.54789722654097 70.28461811362709 H 0.0 **** 0.06
14215 H 14.991546607913477 55.351435512405814 71.99354770879049 H 0.0 **** 0.06
14216 C 26.84320926910874 64.60942551460187 90.06150682490767 C 0.0 **** -0.24
14217 H 26.42461640424625 64.72127588307558 89.06216946693861 H 0.0 **** 0.06
14218 H 27.57811688026294 63.80423054848944 90.06072082232679 H 0.0 **** 0.06
14219 H 26.04489596486235 64.37134059274018 90.76524841615812 H 0.0 **** 0.06
14220 H 27.32446383193667 65.54073967352417 90.36061505077326 H 0.0 **** 0.06
14221 C 49.05629480736235 36.37718984188999 107.229789953765 C 0.0 **** -0.24
14222 H 48.7430882930949 36.17287657608716 106.2063509185746 H 0.0 **** 0.06
14223 H 48.267631154421906 36.071344833854766 107.91780321319767 H 0.0 **** 0.06
14224 H 49.246413560362384 37.444135498005295 107.34520895231566 H 0.0 **** 0.06
14225 H 49.96631936139511 35.81906833628946 107.44930855038878 H 0.0 **** 0.06
14226 C 90.8729182254209 53.185482764051095 73.83034333516738 C 0.0 **** -0.24
14227 H 90.94979167594761 52.96393268678339 72.76607845033521 H 0.0 **** 0.06
14228 H 91.4915037171964 52.48559265981477 74.39251108990726 H 0.0 **** 0.06
14229 H 89.83447475342845 53.08852226770929 74.1475555099799 H 0.0 **** 0.06
14230 H 91.21520274730906 54.20361054229457 74.01456831684078 H 0.0 **** 0.06
14231 C 65.84692781472478 56.92929288324888 18.784441538719506 C 0.0 **** -0.24
14232 H 65.42103429231764 57.59745279628646 18.035790231379877 H 0.0 **** 0.06
14233 H 66.42127364742777 56.14613807027422 18.286641095446555 H 0.0 **** 0.06
14234 H 65.04456589342058 56.4773061686181 19.367493067284414 H 0.0 **** 0.06
14235 H 66.50307253704881 57.495798653253075 19.446174951966867 H 0.0 **** 0.06
14236 C 58.07681029985247 87.42636707127309 95.00853615008924 C 0.0 **** -0.24
14237 H 58.41240615086224 87.48169355209069 93.97225375097867 H 0.0 **** 0.06
14238 H 58.94024016610092 87.3147190875394 95.66437021842574 H 0.0 **** 0.06
14239 H 57.41439173378615 86.56910523797018 95.1297489326941 H 0.0 **** 0.06
14240 H 57.540301734023274 88.33974633009404 95.26554708936453 H 0.0 **** 0.06
14241 C 4.785434218430993 39.39816418643189 21.328648721220304 C 0.0 **** -0.24
14242 H 5.7951309179997565 39.746362720670724 21.110593461647113 H 0.0 **** 0.06
14243 H 4.458589482514469 38.71600108236292 20.5437590754548 H 0.0 **** 0.06
14244 H 4.109118079373843 40.2518156721801 21.373407563728534 H 0.0 **** 0.06
14245 H 4.779531687940306 38.87971214612343 22.287107036434577 H 0.0 **** 0.06
14246 C 52.22907103686208 38.04694270838138 101.33832440127368 C 0.0 **** -0.24
14247 H 51.83458410498298 38.64791475872397 100.51859675189547 H 0.0 **** 0.06
14248 H 51.402055721335955 37.63727916726978 101.91938485292768 H 0.0 **** 0.06
14249 H 52.84962118842952 38.67089711913246 101.98077213153768 H 0.0 **** 0.06
14250 H 52.8292757796612 37.23106577638893 100.93428989439623 H 0.0 **** 0.06
14251 C 10.594366969329855 94.35611587335885 81.29398944724436 C 0.0 **** -0.24
14252 H 10.83017470171282 94.28752878900154 80.23243576894839 H 0.0 **** 0.06
14253 H 11.299342538908135 95.03119568852429 81.7792176663511 H 0.0 **** 0.06
14254 H 10.666163662578029 93.36736091494298 81.74712805738253 H 0.0 **** 0.06
14255 H 9.580767804987218 94.73930921609487 81.41686901881452 H 0.0 **** 0.06
14256 C 93.42222619539842 65.3181886727931 91.62564375249757 C 0.0 **** -0.24
14257 H 92.7229770513664 64.98046314201736 90.86001859167835 H 0.0 **** 0.06
14258 H 94.18856369434747 64.55713975389813 91.77722270888904 H 0.0 **** 0.06
14259 H 92.88562066016362 65.48588890015907 92.5584581874294 H 0.0 **** 0.06
14260 H 93.89136928162455 66.24764420406729 91.30352282206017 H 0.0 **** 0.06
14261 C 109.50643561215915 28.679669230870616 4.417348987200427 C 0.0 **** -0.24
14262 H 108.77510563522529 28.64293173694 3.609400599638434 H 0.0 **** 0.06
14263 H 110.01285689420318 27.71645372171821 4.492702762299075 H 0.0 **** 0.06
14264 H 108.99850095601958 28.898099060688594 5.356677749438433 H 0.0 **** 0.06
14265 H 110.23780022580715 29.459891854934085 4.2095555173993375 H 0.0 **** 0.06
14266 C 31.594897110521543 101.96685701659383 100.87082372158409 C 0.0 **** -0.24
14267 H 30.864591907210155 101.1853717065129 100.66162348684668 H 0.0 **** 0.06
14268 H 31.246420370176423 102.91059981881854 100.45080558323292 H 0.0 **** 0.06
14269 H 32.55136501473666 101.69967763040306 100.42274671973314 H 0.0 **** 0.06
14270 H 31.71464912885341 102.07161338152811 101.94930613071284 H 0.0 **** 0.06
14271 C 103.18806482845153 110.59112295675158 52.39291377765943 C 0.0 **** -0.24
14272 H 103.04043168738959 109.91307369978682 51.553263663053826 H 0.0 **** 0.06
14273 H 103.73594731998972 110.07765253149307 53.18354496283678 H 0.0 **** 0.06
14274 H 102.21944215247537 110.91559394042302 52.77286300133579 H 0.0 **** 0.06
14275 H 103.75762241017017 111.45998227363671 52.06083478844596 H 0.0 **** 0.06
14276 C 17.276328293988595 103.25077491590204 49.04516567893715 C 0.0 **** -0.24
14277 H 17.97170264037593 103.5624098295371 49.82423942794943 H 0.0 **** 0.06
14278 H 16.754820964568918 102.34783133315659 49.36357540184113 H 0.0 **** 0.06
14279 H 17.82708594694465 103.04780317976105 48.126585674368556 H 0.0 **** 0.06
14280 H 16.551703624065187 104.04505532115348 48.86626221158934 H 0.0 **** 0.06
14281 C 98.42432563718232 44.38694316381016 62.503374314544914 C 0.0 **** -0.24
14282 H 97.69371454468443 43.61102851244269 62.73659679201343 H 0.0 **** 0.06
14283 H 98.96608223868219 44.11437707704093 61.59725440955151 H 0.0 **** 0.06
14284 H 99.1261151327758 44.48525872616186 63.33099937298083 H 0.0 **** 0.06
14285 H 97.9093627910811 45.3349776321316 62.34805643196947 H 0.0 **** 0.06
14286 C 107.9529990476441 41.458829784796 12.651383648661756 C 0.0 **** -0.24
14287 H 108.39628880852261 42.35811068259543 13.079871480805156 H 0.0 **** 0.06
14288 H 108.72334971129348 40.884950178751126 12.134943086486928 H 0.0 **** 0.06
14289 H 107.17283018249134 41.7406345822844 11.943219540766492 H 0.0 **** 0.06
14290 H 107.52012763921115 40.852552129758045 13.446618483567928 H 0.0 **** 0.06
14291 C 88.6361049676051 40.16124423398719 28.23709474840979 C 0.0 **** -0.24
14292 H 89.33553023081402 39.487540869317456 28.73083531441165 H 0.0 **** 0.06
14293 H 87.62407459722442 39.95213699532846 28.583834458896774 H 0.0 **** 0.06
14294 H 88.68868867529319 40.01242245119042 27.158252870216756 H 0.0 **** 0.06
14295 H 88.89701138554273 41.19302721531278 28.47436357201377 H 0.0 **** 0.06
14296 C 16.953919429982307 60.58163998164659 52.222446080545126 C 0.0 **** -0.24
14297 H 17.498481435683715 59.63817717401413 52.16992036280561 H 0.0 **** 0.06
14298 H 15.90498765590435 60.38324457019395 52.44131384114053 H 0.0 **** 0.06
14299 H 17.03417031206463 61.101014028481515 51.266997926084 H 0.0 **** 0.06
14300 H 17.379033932298626 61.202919177922055 53.00966616900553 H 0.0 **** 0.06
14301 C 6.340512120641975 24.013073487005087 24.095086740594212 C 0.0 **** -0.24
14302 H 6.107402668069483 24.943407616537087 23.575672454811894 H 0.0 **** 0.06
14303 H 6.78839168615481 24.240149329778433 25.063277972310658 H 0.0 **** 0.06
14304 H 7.042085201472929 23.431121009051097 23.497589254332496 H 0.0 **** 0.06
14305 H 5.425673196511781 23.43960522713327 24.242139776339826 H 0.0 **** 0.06
14306 C 40.085423642872556 86.45546499336446 18.671288018004446 C 0.0 **** -0.24
14307 H 41.07360816785669 86.00161429778971 18.602196916767582 H 0.0 **** 0.06
14308 H 39.59046265910902 86.11173165443518 19.580185594697866 H 0.0 **** 0.06
14309 H 39.49164458876976 86.17010008231337 17.80285146962092 H 0.0 **** 0.06
14310 H 40.18599153689277 87.54057922188558 18.70047634515015 H 0.0 **** 0.06
14311 C 96.23637138315217 43.259901180626656 97.57938149894174 C 0.0 **** -0.24
14312 H 96.81966100726758 43.283388924312455 96.6595977169452 H 0.0 **** 0.06
14313 H 96.63272849766464 43.995671112195986 98.27893876178365 H 0.0 **** 0.06
14314 H 96.29756041337559 42.26614557490438 98.023110509538 H 0.0 **** 0.06
14315 H 95.1955356143008 43.49439911109391 97.3558790074998 H 0.0 **** 0.06
14316 C 18.297717665642992 47.52406081828366 15.842801216474896 C 0.0 **** -0.24
14317 H 17.385243539473176 47.51837946758474 15.247076956216887 H 0.0 **** 0.06
14318 H 18.099654347390125 47.995151688558224 16.806383139966158 H 0.0 **** 0.06
14319 H 19.072291746640037 48.08251004948329 15.317122432108647 H 0.0 **** 0.06
14320 H 18.63381989954349 46.49927263565198 16.001679206554513 H 0.0 **** 0.06
14321 C 96.70781728262466 97.02034127481735 14.021104786019691 C 0.0 **** -0.24
14322 H 95.66889989634132 97.25196464886241 13.78792251360818 H 0.0 **** 0.06
14323 H 97.32239346987438 97.1788978761059 13.135005670979893 H 0.0 **** 0.06
14324 H 96.78503716589353 95.97838089163741 14.335062565732443 H 0.0 **** 0.06
14325 H 97.05291415929076 97.66925302092005 14.825607979386092 H 0.0 **** 0.06
14326 C 35.12559675190377 37.5006624733968 21.119087924099375 C 0.0 **** -0.24
14327 H 34.595161982105424 38.185308431845044 20.45820931499628 H 0.0 **** 0.06
14328 H 35.32277377651445 36.566864399153246 20.59235922803788 H 0.0 **** 0.06
14329 H 34.51615581944981 37.299618417968816 22.00033237702496 H 0.0 **** 0.06
14330 H 36.07046276921034 37.95092916059531 21.42599659468121 H 0.0 **** 0.06
14331 C 64.48247852367268 20.144712482431657 4.962396093821718 C 0.0 **** -0.24
14332 H 65.30367607439317 20.24925076806676 4.253397465624051 H 0.0 **** 0.06
14333 H 64.85035762896587 19.685345171771075 5.879888530707298 H 0.0 **** 0.06
14334 H 63.705211896744515 19.516402815022218 4.5268592874101685 H 0.0 **** 0.06
14335 H 64.07000974536359 21.12841824595006 5.187378816992334 H 0.0 **** 0.06
14336 C 71.2396640446454 16.140605633121623 95.34272530116834 C 0.0 **** -0.24
14337 H 72.26343632784489 15.903635184559448 95.63095613261255 H 0.0 **** 0.06
14338 H 71.16115315649347 17.20546278847769 95.1209933264961 H 0.0 **** 0.06
14339 H 70.56437573818471 15.887548529518028 96.16046399399634 H 0.0 **** 0.06
14340 H 70.96942648200309 15.563733582348064 94.45716156794286 H 0.0 **** 0.06
14341 C 70.39432183129219 81.82085896026632 73.51601347342319 C 0.0 **** -0.24
14342 H 69.74042337076199 80.97356994566587 73.72295759910475 H 0.0 **** 0.06
14343 H 69.87628279330204 82.74751972487815 73.76470234503745 H 0.0 **** 0.06
14344 H 70.65894180854721 81.82418348063118 72.45880822956627 H 0.0 **** 0.06
14345 H 71.2988799572584 81.73765173256885 74.1172320783312 H 0.0 **** 0.06
14346 C 10.181983430175165 55.74210353219996 82.34172148667331 C 0.0 **** -0.24
14347 H 10.696860801303814 56.38236052980869 81.62545547491683 H 0.0 **** 0.06
14348 H 9.683158168568326 54.931917018343825 81.81095143780773 H 0.0 **** 0.06
14349 H 9.44322037188958 56.32941114198593 82.88679729077185 H 0.0 **** 0.06
14350 H 10.904958908861104 55.326843821136606 83.04301636285706 H 0.0 **** 0.06
14351 C 72.43433808772687 98.24160370811639 24.00808493275801 C 0.0 **** -0.24
14352 H 72.36365428293254 97.20199852178881 23.688975918300798 H 0.0 **** 0.06
14353 H 71.93768927107556 98.8793693844285 23.275913029367587 H 0.0 **** 0.06
14354 H 73.48339191575155 98.52654458328271 24.08685349030344 H 0.0 **** 0.06
14355 H 71.95259535461165 98.35788568524586 24.978226729513324 H 0.0 **** 0.06
14356 C 69.69745879445009 57.18804475859935 2.6543708609251553 C 0.0 **** -0.24
14357 H 70.41111688665708 57.74884559159409 3.25772918900536 H 0.0 **** 0.06
14358 H 70.02276049937416 56.149629625171144 2.5788087644950224 H 0.0 **** 0.06
14359 H 69.64186468063903 57.6255122567878 1.658001366215231 H 0.0 **** 0.06
14360 H 68.71516665254286 57.22800728022304 3.1248970194953216 H 0.0 **** 0.06
14361 C 81.3324791640664 37.774950028190275 4.144172379436782 C 0.0 **** -0.24
14362 H 81.52179676702491 37.15951608252182 3.264754032352414 H 0.0 **** 0.06
14363 H 80.26100564964747 37.95174619072334 4.23992401447191 H 0.0 **** 0.06
14364 H 81.85076350202559 38.72800740145246 4.038159532283316 H 0.0 **** 0.06
14365 H 81.69637908688969 37.259712403164 5.033277425369903 H 0.0 **** 0.06
14366 C 68.50584537789823 104.69181329647466 80.26060516731923 C 0.0 **** -0.24
14367 H 67.75525568826964 103.91521968387705 80.41011519154387 H 0.0 **** 0.06
14368 H 68.42247975978256 105.08745165274387 79.24732815559241 H 0.0 **** 0.06
14369 H 69.49992957939793 104.26999269356631 80.40644300874408 H 0.0 **** 0.06
14370 H 68.34314325340895 105.49575229829092 80.9783731142951 H 0.0 **** 0.06
14371 C 19.408248088806573 14.170296733205358 97.95202564308488 C 0.0 **** -0.24
14372 H 20.26576578091481 13.766422093384769 97.41372050572338 H 0.0 **** 0.06
14373 H 18.590852412858993 13.450001514362395 97.92790489902774 H 0.0 **** 0.06
14374 H 19.08846516768007 15.099504202844809 97.4800424746723 H 0.0 **** 0.06
14375 H 19.689486001256977 14.366792320348388 98.98683793268167 H 0.0 **** 0.06
14376 C 47.91772695960884 4.025505855388417 30.405156061946343 C 0.0 **** -0.24
14377 H 47.74051930926316 2.953316810667559 30.318248898503157 H 0.0 **** 0.06
14378 H 47.21754400803678 4.5619255974738735 29.76456770805254 H 0.0 **** 0.06
14379 H 48.93906083812385 4.251249927951079 30.097384247948924 H 0.0 **** 0.06
14380 H 47.773736498414365 4.334578237322461 31.44012355279608 H 0.0 **** 0.06
14381 C 38.624947447915076 34.69517661245328 95.86147105599957 C 0.0 **** -0.24
14382 H 39.44994780082192 35.40812647198027 95.87155538318831 H 0.0 **** 0.06
14383 H 37.93902787234646 34.94500409070463 95.05125542951292 H 0.0 **** 0.06
14384 H 38.09486466730675 34.73878345988109 96.81225776137403 H 0.0 **** 0.06
14385 H 39.016274863086494 33.68968309483476 95.70879054011587 H 0.0 **** 0.06
14386 C 55.35778016987652 68.59727806779458 28.080528727938713 C 0.0 **** -0.24
14387 H 55.454422638823594 67.52980881612314 27.880890577682038 H 0.0 **** 0.06
14388 H 56.32274502831846 68.99543013825988 28.396842756562222 H 0.0 **** 0.06
14389 H 54.62282449373222 68.75534334436773 28.869296890244186 H 0.0 **** 0.06
14390 H 55.0331636724018 69.10859662724937 27.174160588974104 H 0.0 **** 0.06
14391 C 12.382110955127928 28.85310506053105 57.283929401007185 C 0.0 **** -0.24
14392 H 12.304162374415355 28.238719013250773 58.18115543634872 H 0.0 **** 0.06
14393 H 12.717442275199772 28.236474039213505 56.449566854941054 H 0.0 **** 0.06
14394 H 13.098889243396883 29.656123989337885 57.45413571991088 H 0.0 **** 0.06
14395 H 11.406745438198286 29.280385585858312 57.05104489139592 H 0.0 **** 0.06
14396 C 61.592204971797344 90.7521788406566 54.10745268934741 C 0.0 **** -0.24
14397 H 61.25388091118191 90.570867450381 55.12753882885089 H 0.0 **** 0.06
14398 H 62.445326525762084 91.43174600626688 54.12360518685092 H 0.0 **** 0.06
14399 H 60.78212669753714 91.19843179615344 53.53091109996831 H 0.0 **** 0.06
14400 H 61.88752663579848 89.8091304744722 53.64972184754193 H 0.0 **** 0.06
14401 C 68.97395565426166 85.14290296339857 64.25410308952263 C 0.0 **** -0.24
14402 H 68.42954201384248 85.6596492854784 63.46345665763411 H 0.0 **** 0.06
14403 H 69.58291199389336 85.86044050504375 64.80462812790103 H 0.0 **** 0.06
14404 H 69.61878014948473 84.38168713196183 63.813334860608165 H 0.0 **** 0.06
14405 H 68.26516464538992 84.66949119893002 64.93425115368129 H 0.0 **** 0.06
14406 C 80.99819600580308 108.85692347188443 63.34813217504234 C 0.0 **** -0.24
14407 H 80.94727934036418 108.43828556785948 62.342961773532735 H 0.0 **** 0.06
14408 H 79.99340524948941 109.11754318421448 63.683775941547864 H 0.0 **** 0.06
14409 H 81.62207920150747 109.75050232026572 63.33939627774225 H 0.0 **** 0.06
14410 H 81.42817053620651 108.1203992038321 64.02720113808974 H 0.0 **** 0.06
14411 C 1.376939201489444 40.900129866190284 27.460673053052716 C 0.0 **** -0.24
14412 H 0.8609152696069433 41.83021175401879 27.218359592236624 H 0.0 **** 0.06
14413 H 1.122079196020625 40.13996401901636 26.72254368026651 H 0.0 **** 0.06
14414 H 1.0695926156758482 40.56343444626921 28.451334982876773 H 0.0 **** 0.06
14415 H 2.4531372175623796 41.069282480997344 27.45225321267617 H 0.0 **** 0.06
14416 C 47.107804036944756 47.07158084891127 93.53698496728094 C 0.0 **** -0.24
14417 H 46.41467375273743 46.24101362258059 93.40127110296339 H 0.0 **** 0.06
14418 H 47.65154028161053 47.24530708165843 92.60832150225349 H 0.0 **** 0.06
14419 H 47.813963647592644 46.8297861160107 94.33170924267174 H 0.0 **** 0.06
14420 H 46.551337847483794 47.9691777553945 93.80572625142258 H 0.0 **** 0.06
14421 C 22.10569860171188 98.50894462725921 29.006064916237605 C 0.0 **** -0.24
14422 H 21.744303228842682 97.47956873221204 28.997318870374464 H 0.0 **** 0.06
14423 H 23.06279982499808 98.5526402163531 29.526155959198036 H 0.0 **** 0.06
14424 H 21.383236899289216 99.14208087634881 29.520124502743798 H 0.0 **** 0.06
14425 H 22.231368033499052 98.85792300086814 27.98098636625491 H 0.0 **** 0.06
14426 C 76.48714942762422 99.37524129365427 95.41825324762858 C 0.0 **** -0.24
14427 H 76.08795051348665 98.69536174064997 94.6665134774508 H 0.0 **** 0.06
14428 H 75.86772593184133 100.27172736832334 95.46216273207743 H 0.0 **** 0.06
14429 H 77.50765160292764 99.65163285491377 95.15411744767448 H 0.0 **** 0.06
14430 H 76.48339712194587 98.88316445943654 96.3915019849896 H 0.0 **** 0.06
14431 C 25.757312539349584 28.354617465845706 17.036690894123296 C 0.0 **** -0.24
14432 H 26.50205395262941 28.580733101680238 16.274024096310313 H 0.0 **** 0.06
14433 H 26.177352481729827 27.652867897517353 17.7580367046842 H 0.0 **** 0.06
14434 H 24.87971453922694 27.911851228351566 16.566607395730415 H 0.0 **** 0.06
14435 H 25.471014038851536 29.274114950435774 17.548209540964535 H 0.0 **** 0.06
14436 C 88.07081358294403 51.93685884823299 22.97850128947215 C 0.0 **** -0.24
14437 H 87.46137313507577 51.73770039014239 22.0968188080123 H 0.0 **** 0.06
14438 H 87.42206017967692 52.132856372959765 23.832727119591908 H 0.0 **** 0.06
14439 H 88.70263540287758 52.80547928967943 22.794497428232518 H 0.0 **** 0.06
14440 H 88.69865037327921 51.07055569616736 23.188497904207424 H 0.0 **** 0.06
14441 C 13.817314447227485 55.65017838761727 35.532228119699994 C 0.0 **** -0.24
14442 H 14.747876163642058 55.163927120740546 35.823803657005755 H 0.0 **** 0.06
14443 H 13.47449791037592 55.2380125423147 34.58264193569454 H 0.0 **** 0.06
14444 H 13.98635088858239 56.72166122102105 35.424390464824455 H 0.0 **** 0.06
14445 H 13.061320334592018 55.47676226063209 36.29858346839853 H 0.0 **** 0.06
14446 C 26.83820087198123 52.54329145255454 100.34477639952604 C 0.0 **** -0.24
14447 H 27.4561051257632 52.1605819701399 101.15772939350435 H 0.0 **** 0.06
14448 H 25.838971246880845 52.11366182741972 100.41593308174376 H 0.0 **** 0.06
14449 H 27.284779112615183 52.26861607858896 99.38875386648398 H 0.0 **** 0.06
14450 H 26.773231332742796 53.628801073951394 100.41749874443474 H 0.0 **** 0.06
14451 C 37.60277991077859 67.77187048724517 90.47964820011771 C 0.0 **** -0.24
14452 H 37.410745405434085 66.95982281787775 91.17997811933736 H 0.0 **** 0.06
14453 H 38.28754574291922 68.48859765268384 90.93357626149128 H 0.0 **** 0.06
14454 H 36.66434065508732 68.27006391602222 90.23574490921101 H 0.0 **** 0.06
14455 H 38.04780698702737 67.36984577379326 89.57019743391038 H 0.0 **** 0.06
14456 C 99.40681086675478 61.234491351684 20.741059121047044 C 0.0 **** -0.24
14457 H 99.07415170537932 61.20493114030302 21.778751667067667 H 0.0 **** 0.06
14458 H 100.07419055214507 60.394260372387066 20.550785731263602 H 0.0 **** 0.06
14459 H 99.93549105483332 62.16874088582634 20.55564680189258 H 0.0 **** 0.06
14460 H 98.54179236445034 61.16937547278991 20.080770045198022 H 0.0 **** 0.06
14461 C 74.59350002655577 61.37009806228241 108.21605288857938 C 0.0 **** -0.24
14462 H 74.50153815189711 60.30003378996253 108.40089654234214 H 0.0 **** 0.06
14463 H 73.60638922559993 61.82954713846436 108.24415008983482 H 0.0 **** 0.06
14464 H 75.04292236497565 61.531583576999935 107.23618007673605 H 0.0 **** 0.06
14465 H 75.22592246146286 61.818109142993194 108.98323912718035 H 0.0 **** 0.06
14466 C 30.068155097357312 18.90784991249801 79.53879904193201 C 0.0 **** -0.24
14467 H 30.855697060022976 18.36872330589715 79.01259672903484 H 0.0 **** 0.06
14468 H 30.515227293375006 19.59247380227349 80.25939275521205 H 0.0 **** 0.06
14469 H 29.42734011377837 18.197458239352343 80.06186462033685 H 0.0 **** 0.06
14470 H 29.47297737393587 19.472732080829417 78.82102653862302 H 0.0 **** 0.06
14471 C 100.21721144578572 33.40090166426086 100.55875643778123 C 0.0 **** -0.24
14472 H 100.62263152836195 32.40987642009378 100.76450456138018 H 0.0 **** 0.06
14473 H 100.10810876952202 33.94906825475718 101.49502497374573 H 0.0 **** 0.06
14474 H 99.24358709646137 33.302703466132186 100.07824682197096 H 0.0 **** 0.06
14475 H 100.89574722262215 33.94101375017695 99.89886111244176 H 0.0 **** 0.06
14476 C 74.23016002299494 106.7724997818537 88.00975706389966 C 0.0 **** -0.24
14477 H 74.05602403471204 106.39864993723744 87.00117804188761 H 0.0 **** 0.06
14478 H 74.1367174883419 105.95188898073526 88.72231879936041 H 0.0 **** 0.06
14479 H 73.49570580804095 107.54249748869054 88.24449358663952 H 0.0 **** 0.06
14480 H 75.23286037301216 107.19556720080456 88.07293706960982 H 0.0 **** 0.06
14481 C 66.10343886667147 9.071111428800691 19.863358604692195 C 0.0 **** -0.24
14482 H 65.4387181522406 8.373229033566588 19.35214399890981 H 0.0 **** 0.06
14483 H 66.43340316362118 8.633579501966551 20.80522646883051 H 0.0 **** 0.06
14484 H 65.57050855835249 10.001301132574099 20.06017356420091 H 0.0 **** 0.06
14485 H 66.96913885812454 9.27499748670516 19.2330160440153 H 0.0 **** 0.06
14486 C 91.7777759232046 7.702329365230904 69.24914355872028 C 0.0 **** -0.24
14487 H 92.35354130215934 8.583396518819061 68.96574872671192 H 0.0 **** 0.06
14488 H 91.22509946969639 7.335418461749821 68.38361544577543 H 0.0 **** 0.06
14489 H 91.07658154970619 7.966866683624529 70.04134065932675 H 0.0 **** 0.06
14490 H 92.45368424343279 6.925420336028855 69.60487516903356 H 0.0 **** 0.06
14491 C 21.428745508596336 40.02685842169789 13.947393365782432 C 0.0 **** -0.24
14492 H 22.252769856629953 40.40712848763623 14.551031732244667 H 0.0 **** 0.06
14493 H 21.028501987663248 39.12301911664816 14.406520098930741 H 0.0 **** 0.06
14494 H 21.789884152211812 39.79696468194797 12.944625438416665 H 0.0 **** 0.06
14495 H 20.645145863506485 40.78182973264079 13.885987898003236 H 0.0 **** 0.06
14496 C 0.26218635148832004 21.965768600741598 104.14143722391663 C 0.0 **** -0.24
14497 H -0.5806516541203033 21.29723210200811 103.96340401434784 H 0.0 **** 0.06
14498 H 0.9660648262459199 21.890786386561956 103.31177008699495 H 0.0 **** 0.06
14499 H 0.7606518296893015 21.6823766741405 105.06823110381592 H 0.0 **** 0.06
14500 H -0.09793565724754227 22.992057395200646 104.22084905746655 H 0.0 **** 0.06
14501 C 26.71584875806542 52.9412849512546 58.06258937889311 C 0.0 **** -0.24
14502 H 26.25427234303288 53.05035853726844 57.08156957284666 H 0.0 **** 0.06
14503 H 25.938767403459252 52.82434384685675 58.81883216076926 H 0.0 **** 0.06
14504 H 27.309392518568245 53.82894494857263 58.28492773379088 H 0.0 **** 0.06
14505 H 27.361466759112943 52.06280856172805 58.06490972074221 H 0.0 **** 0.06
14506 C 102.33872470834274 69.22716572208043 80.4353418880331 C 0.0 **** -0.24
14507 H 101.36631932958278 69.35326513641826 80.91327864018224 H 0.0 **** 0.06
14508 H 102.77326771847044 68.2753094640378 80.74116174071945 H 0.0 **** 0.06
14509 H 102.99824076662583 70.04205659153277 80.73614288749877 H 0.0 **** 0.06
14510 H 102.21501253063889 69.23987116986632 79.35310368401258 H 0.0 **** 0.06
14511 C 56.78781278393711 26.62664132402211 30.017678367790325 C 0.0 **** -0.24
14512 H 57.73096507454176 27.065357674394477 30.345965645650097 H 0.0 **** 0.06
14513 H 56.95090034863222 26.06069808186402 29.1006530624054 H 0.0 **** 0.06
14514 H 56.06389629006728 27.41950253291732 29.831665723054755 H 0.0 **** 0.06
14515 H 56.4078364559212 25.96253275512408 30.79350791865602 H 0.0 **** 0.06
14516 C 34.74041430002751 68.4415346533377 63.51361254216772 C 0.0 **** -0.24
14517 H 34.72149035664563 68.84599365977662 62.50104373685667 H 0.0 **** 0.06
14518 H 35.729995602471234 68.59353399667904 63.94634323682368 H 0.0 **** 0.06
14519 H 34.51738236071242 67.37460720865235 63.48187355996987 H 0.0 **** 0.06
14520 H 33.994555134909405 68.95141709024541 64.12194357881873 H 0.0 **** 0.06
14521 C 17.880522970488265 38.70782916484313 76.44902826802844 C 0.0 **** -0.24
14522 H 18.066349615947566 38.99894704382743 75.41516920010439 H 0.0 **** 0.06
14523 H 16.916726211279517 39.103047338612726 76.77004094109338 H 0.0 **** 0.06
14524 H 18.668443349010037 39.10850520074794 77.0862016237933 H 0.0 **** 0.06
14525 H 17.87070611989195 37.62025138004657 76.52341200921606 H 0.0 **** 0.06
14526 C 72.7342028092184 24.692999531740014 62.916018847964125 C 0.0 **** -0.24
14527 H 72.34388394341408 25.407831790655422 62.19114590034292 H 0.0 **** 0.06
14528 H 71.9138420679638 24.305410194365834 63.520058159972635 H 0.0 **** 0.06
14529 H 73.45910704811473 25.18819908048215 63.56184619951996 H 0.0 **** 0.06
14530 H 73.21878805307816 23.87015146180076 62.389469723980056 H 0.0 **** 0.06
14531 C 52.15626070180679 7.390633932503448 22.015038776153347 C 0.0 **** -0.24
14532 H 52.81350019499496 7.360079349874752 21.1465513836944 H 0.0 **** 0.06
14533 H 51.12878750297557 7.552499990151318 21.687381950981248 H 0.0 **** 0.06
14534 H 52.46013938541611 8.20610441816612 22.671654632922426 H 0.0 **** 0.06
14535 H 52.22125503609624 6.445594418918091 22.55423149082432 H 0.0 **** 0.06
14536 C 59.34470412521158 18.189994376872136 23.223354234486536 C 0.0 **** -0.24
14537 H 59.97989545069555 17.459623024566724 23.725448294507018 H 0.0 **** 0.06
14538 H 59.278097789069975 17.94468198090715 22.163606087543272 H 0.0 **** 0.06
14539 H 59.77302009884379 19.18504034962443 23.3409409479801 H 0.0 **** 0.06
14540 H 58.34810807466022 18.16833502275206 23.665327041288123 H 0.0 **** 0.06
14541 C 74.76461104890791 13.392783689083558 9.774180617467447 C 0.0 **** -0.24
14542 H 75.76368504783528 13.301044774937594 9.346408574147874 H 0.0 **** 0.06
14543 H 74.84490815320677 13.655616043877174 10.828453924399483 H 0.0 **** 0.06
14544 H 74.23881431711789 12.4432531358066 9.675017887463767 H 0.0 **** 0.06
14545 H 74.21380446574494 14.170469778603604 9.245509486718143 H 0.0 **** 0.06
14546 C 93.79560151409542 68.77186928567227 30.207005019341295 C 0.0 **** -0.24
14547 H 93.17563101956917 69.37168421440424 29.54001820182907 H 0.0 **** 0.06
14548 H 94.24369365019376 67.95260287267388 29.645921560011857 H 0.0 **** 0.06
14549 H 93.17890831590088 68.368500217676 31.010713094060236 H 0.0 **** 0.06
14550 H 94.58228670645136 69.3959580936887 30.630454281782136 H 0.0 **** 0.06
14551 C 82.22027411805891 90.89535602921546 5.161259334833176 C 0.0 **** -0.24
14552 H 81.80339354391074 91.77291256339805 4.666552477691965 H 0.0 **** 0.06
14553 H 83.0639798409494 91.19600653028238 5.78229206469706 H 0.0 **** 0.06
14554 H 82.55668491554377 90.18053128545827 4.4115480584947875 H 0.0 **** 0.06
14555 H 81.45530736542685 90.434156215533 5.7864451975155475 H 0.0 **** 0.06
14556 C 96.14942161299989 45.93495541972723 25.25176172223371 C 0.0 **** -0.24
14557 H 95.11539753617507 46.27881333363004 25.257475207568007 H 0.0 **** 0.06
14558 H 96.18687334969172 44.89033874991625 25.561518297867053 H 0.0 **** 0.06
14559 H 96.73713634254037 46.54112605034126 25.94148726089938 H 0.0 **** 0.06
14560 H 96.55780640335304 46.030474248469886 24.245183956566166 H 0.0 **** 0.06
14561 C 94.47399210502569 46.00153427764238 93.52194376947892 C 0.0 **** -0.24
14562 H 95.35021198862495 45.91169371697692 94.16478602859894 H 0.0 **** 0.06
14563 H 94.73603323523267 45.70062352929268 92.50741879785139 H 0.0 **** 0.06
14564 H 94.13209857244603 47.0372287853559 93.51719982846342 H 0.0 **** 0.06
14565 H 93.67911511791377 45.35795938993559 93.89932247536973 H 0.0 **** 0.06
14566 C 86.20307507994983 68.79352222319693 33.279396359306105 C 0.0 **** -0.24
14567 H 86.54618074348372 67.82210063020688 32.92280787668315 H 0.0 **** 0.06
14568 H 85.14543211497181 68.91221601304738 33.044635076408795 H 0.0 **** 0.06
14569 H 86.77546924649684 69.58182328353183 32.78963812395021 H 0.0 **** 0.06
14570 H 86.34659335256134 68.85594614144804 34.35765859245549 H 0.0 **** 0.06
14571 C 107.33618478851082 41.727615614805984 92.4855914365798 C 0.0 **** -0.24
14572 H 107.24410064712072 41.78612878864914 91.4016327707654 H 0.0 **** 0.06
14573 H 106.3922724578282 42.01961872928942 92.94643029166095 H 0.0 **** 0.06
14574 H 108.12714446927225 42.40003025379616 92.8198460370865 H 0.0 **** 0.06
14575 H 107.5813856401546 40.70566987926401 92.77450696232815 H 0.0 **** 0.06
14576 C 26.84300779114045 42.477514378450195 107.29935103237416 C 0.0 **** -0.24
14577 H 26.731883884677615 41.52610590243336 107.81958379209618 H 0.0 **** 0.06
14578 H 27.419741009276038 42.32664681257022 106.38669857101884 H 0.0 **** 0.06
14579 H 27.362793951324704 43.185409854751015 107.94516686342246 H 0.0 **** 0.06
14580 H 25.858281646830733 42.87147278425266 107.04712703021265 H 0.0 **** 0.06
14581 C 45.144121680220906 69.32001002468508 16.098131592502384 C 0.0 **** -0.24
14582 H 44.67368190817689 68.7681406752657 15.285056370503241 H 0.0 **** 0.06
14583 H 44.714920317394956 69.00297249533497 17.04926575300817 H 0.0 **** 0.06
14584 H 44.971638851144235 70.38797045458341 15.959253949420159 H 0.0 **** 0.06
14585 H 46.21590478376828 69.12315914023387 16.09877050530484 H 0.0 **** 0.06
14586 C 70.14564903955682 63.0669359685144 53.53145705080317 C 0.0 **** -0.24
14587 H 70.61620655074819 64.04237321614802 53.65465824917305 H 0.0 **** 0.06
14588 H 69.38185043598412 62.9329782666171 54.297566551345426 H 0.0 **** 0.06
14589 H 70.90021450444499 62.28571079256987 53.629068377611986 H 0.0 **** 0.06
14590 H 69.68595751026942 63.00793190257808 52.545412985602866 H 0.0 **** 0.06
14591 C 60.861931415988295 80.03067129408494 74.31873496016118 C 0.0 **** -0.24
14592 H 61.008524306673564 80.56154917904794 73.37788962326154 H 0.0 **** 0.06
14593 H 59.889990282245975 80.29360552088264 74.73672632099179 H 0.0 **** 0.06
14594 H 61.647876855973664 80.31256085088233 75.01990099632859 H 0.0 **** 0.06
14595 H 60.903403936546596 78.95648656268831 74.13923312134686 H 0.0 **** 0.06
14596 C 83.66861093102165 52.62157834873352 13.139985810600024 C 0.0 **** -0.24
14597 H 84.29608648614038 51.73118449356724 13.122410870930437 H 0.0 **** 0.06
14598 H 83.02526475250934 52.629888121679606 12.258897004879032 H 0.0 **** 0.06
14599 H 84.29893487476727 53.51109771147891 13.137381196674681 H 0.0 **** 0.06
14600 H 83.05329729889507 52.61490447420608 14.039335739321842 H 0.0 **** 0.06
14601 C 78.46602790289593 108.63938321782425 82.0501938858444 C 0.0 **** -0.24
14602 H 77.56049460768409 108.71905481691334 82.65059754589387 H 0.0 **** 0.06
14603 H 78.54495715037797 109.5067321666111 81.39458674822912 H 0.0 **** 0.06
14604 H 78.4232850046844 107.7313045099943 81.4481674118453 H 0.0 **** 0.06
14605 H 79.33481545274111 108.59918343122455 82.7071001909513 H 0.0 **** 0.06
14606 C 7.362390827404049 71.58018920108458 22.45346914000242 C 0.0 **** -0.24
14607 H 8.293695031999928 72.1469622003334 22.444162963580805 H 0.0 **** 0.06
14608 H 7.571655606247145 70.5349374993421 22.222612168458042 H 0.0 **** 0.06
14609 H 6.680606905397614 71.98801330285636 21.70766428556672 H 0.0 **** 0.06
14610 H 6.904903297460843 71.65007375470844 23.440287783535545 H 0.0 **** 0.06
14611 C 95.14544499634725 27.494169510599335 70.33776985419408 C 0.0 **** -0.24
14612 H 95.68370263937116 26.58223472589259 70.59673974722935 H 0.0 **** 0.06
14613 H 94.8430243782787 28.007970269249 71.25037452858862 H 0.0 **** 0.06
14614 H 94.2604870525474 27.23969438565814 69.75377445753077 H 0.0 **** 0.06
14615 H 95.79304152283203 28.14547548104798 69.75117972325332 H 0.0 **** 0.06
14616 C 31.969942254661646 107.68850976425901 53.74129585942538 C 0.0 **** -0.24
14617 H 32.00999592453843 107.21262574053583 52.76190942430016 H 0.0 **** 0.06
14618 H 32.61046428193907 107.1443377037053 54.436708778347445 H 0.0 **** 0.06
14619 H 30.943591324386375 107.67877267331377 54.108565110253615 H 0.0 **** 0.06
14620 H 32.3177011368783 108.71852731947516 53.65900761736698 H 0.0 **** 0.06
14621 C 9.73404920183009 60.9511124121161 61.81109723256725 C 0.0 **** -0.24
14622 H 10.790569750279218 60.8248360590989 62.0478995824522 H 0.0 **** 0.06
14623 H 9.621725711966931 61.14488329939019 60.743860585095206 H 0.0 **** 0.06
14624 H 9.332837458270717 61.791827464084875 62.376965648220335 H 0.0 **** 0.06
14625 H 9.191809561877463 60.043279692574885 62.074522044502885 H 0.0 **** 0.06
14626 C 12.26329649043987 105.73034253687432 17.943984991778095 C 0.0 **** -0.24
14627 H 12.345657443649628 106.738620952273 18.351446780344403 H 0.0 **** 0.06
14628 H 11.746787832744673 105.7679074634554 16.984509380336476 H 0.0 **** 0.06
14629 H 11.699393557380233 105.1042620997542 18.635755561114493 H 0.0 **** 0.06
14630 H 13.260109142581456 105.31231031734158 17.804915538434003 H 0.0 **** 0.06
14631 C 16.62380190955274 52.35830568141076 56.216562958906046 C 0.0 **** -0.24
14632 H 15.793221986774554 51.7956554430602 56.642670255346935 H 0.0 **** 0.06
14633 H 17.55507104979904 51.81707337415978 56.38665164515966 H 0.0 **** 0.06
14634 H 16.681057946548492 53.337534526849765 56.691542252866796 H 0.0 **** 0.06
14635 H 16.4658566550888 52.48295938157328 55.14538768225055 H 0.0 **** 0.06
14636 C 48.19728031849064 5.585061631533165 56.140494918832985 C 0.0 **** -0.24
14637 H 47.36120896509715 5.4536798598355745 55.453731317042525 H 0.0 **** 0.06
14638 H 48.112066763271 4.8667860416852875 56.95700557260329 H 0.0 **** 0.06
14639 H 48.179538766467545 6.597034301032664 56.54317246648378 H 0.0 **** 0.06
14640 H 49.133492787030775 5.4213775977153205 55.60761365656106 H 0.0 **** 0.06
14641 C 49.327699804742736 80.1759479165176 26.41938637574235 C 0.0 **** -0.24
14642 H 48.715290744595734 80.88346046246562 25.86006813903012 H 0.0 **** 0.06
14643 H 49.56625747013533 79.32256544292972 25.784824863651295 H 0.0 **** 0.06
14644 H 48.77797887606454 79.83480055519831 27.296289495605023 H 0.0 **** 0.06
14645 H 50.249054035413394 80.66395136588312 26.73460005129445 H 0.0 **** 0.06
14646 C 32.89742685984055 90.30778851540487 53.518431229070494 C 0.0 **** -0.24
14647 H 31.895953686200983 90.05805592030117 53.86767871194129 H 0.0 **** 0.06
14648 H 33.528491752996786 89.41903281461799 53.55838393034558 H 0.0 **** 0.06
14649 H 33.32090474159398 91.08318045695898 54.156862552980186 H 0.0 **** 0.06
14650 H 32.843918073398214 90.67070492723786 52.49213195133851 H 0.0 **** 0.06
14651 C 90.93046188939022 5.518775408640494 94.5903595179954 C 0.0 **** -0.24
14652 H 90.68522625020447 4.5182809493076945 94.23682458328469 H 0.0 **** 0.06
14653 H 90.99223392997851 6.198913247402572 93.74085939167614 H 0.0 **** 0.06
14654 H 91.88940730341483 5.496366294207519 95.10894056436746 H 0.0 **** 0.06
14655 H 90.15519347767383 5.862259343512122 95.27547587552803 H 0.0 **** 0.06
14656 C 81.57809873990507 21.852957805037544 66.14158851055254 C 0.0 **** -0.24
14657 H 81.92206890417731 22.804503200276223 65.73575648084959 H 0.0 **** 0.06
14658 H 81.95633355050876 21.73421724833657 67.15716217236199 H 0.0 **** 0.06
14659 H 81.94897093458098 21.038047470546903 65.5183864651214 H 0.0 **** 0.06
14660 H 80.48923914761582 21.835078486893043 66.1539476670065 H 0.0 **** 0.06
14661 C 66.83202256219357 10.988604454356675 69.16379957103175 C 0.0 **** -0.24
14662 H 67.8495445832229 11.353961821376203 69.0271517277776 H 0.0 **** 0.06
14663 H 66.77938310091294 9.940652313932304 68.86654682977701 H 0.0 **** 0.06
14664 H 66.14935519846414 11.575684884491466 68.54823913795764 H 0.0 **** 0.06
14665 H 66.54928701981147 11.083791443440788 70.21198694052532 H 0.0 **** 0.06
14666 C 22.885450795982678 69.32553043227313 106.85077272148607 C 0.0 **** -0.24
14667 H 22.53996219615513 70.29109714905074 106.48024833871716 H 0.0 **** 0.06
14668 H 22.316469915133098 69.0544678413342 107.74089834911672 H 0.0 **** 0.06
14669 H 23.94390626785207 69.39025785076616 107.10074882435583 H 0.0 **** 0.06
14670 H 22.738549575208992 68.56856621262925 106.08059422557659 H 0.0 **** 0.06
14671 C 13.23121143903822 17.16366535699757 54.810671820996106 C 0.0 **** -0.24
14672 H 12.675071854409111 18.0782313085692 55.01718484202206 H 0.0 **** 0.06
14673 H 13.908686819240643 17.332400533560843 53.974833810978396 H 0.0 **** 0.06
14674 H 12.533448436436316 16.36435555715633 54.5589687832595 H 0.0 **** 0.06
14675 H 13.804411418201084 16.879879129851076 55.69358230295839 H 0.0 **** 0.06
14676 C 95.97305906161044 20.138159737781848 5.640294022574949 C 0.0 **** -0.24
14677 H 96.04345673627725 19.319883762637687 4.924606759051358 H 0.0 **** 0.06
14678 H 95.15063259113971 20.797141177002516 5.358892206651376 H 0.0 **** 0.06
14679 H 96.90636951556714 20.701849607173415 5.640602684703822 H 0.0 **** 0.06
14680 H 95.7915606767785 19.73538495060967 6.636502591940257 H 0.0 **** 0.06
14681 C 12.808756221811791 74.254288574707 76.85670048914744 C 0.0 **** -0.24
14682 H 12.766063611536026 74.78081962964836 77.81077814966176 H 0.0 **** 0.06
14683 H 13.500345901815905 73.41600560781279 76.93527572549809 H 0.0 **** 0.06
14684 H 13.151512734967724 74.93720641688557 76.07992389193421 H 0.0 **** 0.06
14685 H 11.815315812736344 73.88498969172792 76.6023479477563 H 0.0 **** 0.06
14686 C 78.20834416976055 94.30224651178196 66.63669027529477 C 0.0 **** -0.24
14687 H 79.02708094345041 94.96077384379933 66.92816175326766 H 0.0 **** 0.06
14688 H 77.27461785820105 94.86484129445876 66.62808597742128 H 0.0 **** 0.06
14689 H 78.13135607022133 93.48074228806496 67.34909632917038 H 0.0 **** 0.06
14690 H 78.40128284737145 93.90236992012223 65.64131944027423 H 0.0 **** 0.06
14691 C 102.58241658101397 92.40128445634933 56.202697268475035 C 0.0 **** -0.24
14692 H 102.54724445841435 91.60745746565043 55.45650803835252 H 0.0 **** 0.06
14693 H 103.47402055249337 92.28055193465514 56.81892434246362 H 0.0 **** 0.06
14694 H 101.69481906090172 92.34750412067936 56.832629821312175 H 0.0 **** 0.06
14695 H 102.61474778824163 93.36870641822374 55.70105377220076 H 0.0 **** 0.06
14696 C 80.63113431306031 66.50703388373375 4.170832942871515 C 0.0 **** -0.24
14697 H 81.55429362546022 65.92744461829295 4.143447928166525 H 0.0 **** 0.06
14698 H 80.85807806256138 67.55860395694998 3.994691923128862 H 0.0 **** 0.06
14699 H 80.16103918899115 66.3945900383327 5.148573585128421 H 0.0 **** 0.06
14700 H 79.95349448151146 66.14615369377802 3.397878598841963 H 0.0 **** 0.06
14701 C 75.11612908280924 61.10267730987718 28.74765386381624 C 0.0 **** -0.24
14702 H 74.49710204088115 60.68348354894546 27.955142167911774 H 0.0 **** 0.06
14703 H 75.29349689858782 62.15981087667832 28.549628570502023 H 0.0 **** 0.06
14704 H 76.06852450940107 60.57431986726037 28.782093099294713 H 0.0 **** 0.06
14705 H 74.60539288236686 60.99309494662455 29.70375161755608 H 0.0 **** 0.06
14706 C 85.37505823364292 93.62353956184629 76.09809185268969 C 0.0 **** -0.24
14707 H 84.7227991615899 94.41442718202745 76.46901587244679 H 0.0 **** 0.06
14708 H 85.63158120339084 93.8222773148175 75.05785535667826 H 0.0 **** 0.06
14709 H 84.86175146472902 92.66466446038852 76.16994887658366 H 0.0 **** 0.06
14710 H 86.28589239411235 93.59343516845207 76.69708822221465 H 0.0 **** 0.06
14711 C 60.324463057300434 82.47424416534426 43.35435471143138 C 0.0 **** -0.24
14712 H 59.874469192492796 82.36015917444217 44.340414980534916 H 0.0 **** 0.06
14713 H 60.59607181234141 83.51852389186706 43.198421090638156 H 0.0 **** 0.06
14714 H 59.60858241842374 82.16656701567871 42.591648704595606 H 0.0 **** 0.06
14715 H 61.21704297879917 81.85213354757155 43.28834567015672 H 0.0 **** 0.06
14716 C 92.7011175027954 47.74640503693939 110.58471464186248 C 0.0 **** -0.24
14717 H 93.41487306243164 47.80248049078443 109.76248942717899 H 0.0 **** 0.06
14718 H 92.8765937098629 48.5721214853676 111.27476334501961 H 0.0 **** 0.06
14719 H 92.82796317580204 46.79987620739209 111.11119649009956 H 0.0 **** 0.06
14720 H 91.68723914935441 47.810235854746 110.19099521203592 H 0.0 **** 0.06
14721 C 77.99017065485444 90.04178462489071 13.321372944855412 C 0.0 **** -0.24
14722 H 78.57119209971925 89.56225848792968 12.533686782580077 H 0.0 **** 0.06
14723 H 78.59430596456241 90.81449861165223 13.798881534800671 H 0.0 **** 0.06
14724 H 77.69999431694652 89.29741284613482 14.063182289185903 H 0.0 **** 0.06
14725 H 77.09660406277267 90.49300283230127 12.889746231614154 H 0.0 **** 0.06
14726 C 101.80581999629597 80.58975096841219 9.281445079588249 C 0.0 **** -0.24
14727 H 102.52405507320921 79.7715686859537 9.336670711059321 H 0.0 **** 0.06
14728 H 101.68812307530607 81.03697810271511 10.268422815530625 H 0.0 **** 0.06
14729 H 100.84452663645432 80.20661713971948 8.938893940030562 H 0.0 **** 0.06
14730 H 102.16804960313536 81.34300096384409 8.58144299884621 H 0.0 **** 0.06
14731 C 43.02139213709739 41.14827618717098 20.814854328960575 C 0.0 **** -0.24
14732 H 43.97176487067793 40.61818193196876 20.878482054097525 H 0.0 **** 0.06
14733 H 43.18871977053439 42.2123952831123 20.97655981368693 H 0.0 **** 0.06
14734 H 42.340722406616806 40.76660160685216 21.5768576371006 H 0.0 **** 0.06
14735 H 42.58448703733768 40.993665487949045 19.828453203178125 H 0.0 **** 0.06
14736 C 59.333846117173934 43.64299808068358 105.00250901619296 C 0.0 **** -0.24
14737 H 59.33416222147501 44.25488945001422 104.10046933679509 H 0.0 **** 0.06
14738 H 58.89451416452842 42.67072653004561 104.78164673144656 H 0.0 **** 0.06
14739 H 58.74985086240194 44.13894278605031 105.77668731347694 H 0.0 **** 0.06
14740 H 60.35838489450887 43.509490268117986 105.3500341207754 H 0.0 **** 0.06
14741 C 47.24293594823348 43.22246042755716 83.82213965212449 C 0.0 **** -0.24
14742 H 46.989451688362266 42.67942733727409 84.73275951681785 H 0.0 **** 0.06
14743 H 47.61351471442009 44.21450801056333 84.08260032946009 H 0.0 **** 0.06
14744 H 46.353573352441686 43.318028769402616 83.197970863552 H 0.0 **** 0.06
14745 H 48.01279302765053 42.676951306748265 83.27638090626334 H 0.0 **** 0.06
14746 C 46.1290291922967 91.25655162788172 93.3525005176989 C 0.0 **** -0.24
14747 H 45.281174213995385 90.6410258226602 93.05278294494173 H 0.0 **** 0.06
14748 H 46.295097513425965 91.14846393857127 94.42435223187766 H 0.0 **** 0.06
14749 H 45.920454108714566 92.30029092232076 93.11978094652898 H 0.0 **** 0.06
14750 H 47.01968947316739 90.93550690950201 92.81205320198347 H 0.0 **** 0.06
14751 C 109.53414835873505 75.59930226861565 24.071471470655865 C 0.0 **** -0.24
14752 H 109.7991231604176 74.5601401146356 24.270788276706753 H 0.0 **** 0.06
14753 H 108.4676287387169 75.74089987381296 24.247502064940818 H 0.0 **** 0.06
14754 H 109.76649701296213 75.84135324692085 23.034252027404932 H 0.0 **** 0.06
14755 H 110.10202053321242 76.25213718912755 24.7343790755408 H 0.0 **** 0.06
14756 C 49.2447455762958 27.304381596339773 25.90102294330819 C 0.0 **** -0.24
14757 H 49.733001702688554 26.383252072766265 25.58296306802015 H 0.0 **** 0.06
14758 H 49.39179293321833 28.073201901966918 25.141900299649592 H 0.0 **** 0.06
14759 H 49.67626985418161 27.63745355603261 26.844807128275818 H 0.0 **** 0.06
14760 H 48.177806384569564 27.12250192697602 26.033560953806955 H 0.0 **** 0.06
14761 C 28.93869196439468 11.996635925162252 73.6446278164731 C 0.0 **** -0.24
14762 H 28.856998190839505 11.744828857780647 74.70183595266528 H 0.0 **** 0.06
14763 H 28.411875821418107 11.24856624453696 73.05141092204458 H 0.0 **** 0.06
14764 H 29.98957159603924 12.015914077216564 73.35581977330314 H 0.0 **** 0.06
14765 H 28.496322249281718 12.977234521114951 73.46944461787949 H 0.0 **** 0.06
14766 C 21.587166925365977 23.84397826158602 56.07688222566475 C 0.0 **** -0.24
14767 H 21.891733934628775 24.785709208953552 55.62209611299755 H 0.0 **** 0.06
14768 H 22.119006124177957 23.706129049078243 57.01853524896535 H 0.0 **** 0.06
14769 H 21.821637609994553 23.02155395960318 55.40201451115149 H 0.0 **** 0.06
14770 H 20.513553794516582 23.863121436390635 56.265956679262786 H 0.0 **** 0.06
14771 C 73.23024243805621 17.32178882540758 0.004357689187173719 C 0.0 **** -0.24
14772 H 73.27075815064131 18.22535651533299 -0.6038344120983083 H 0.0 **** 0.06
14773 H 74.19684093064555 16.818743728963227 -0.028577617239278652 H 0.0 **** 0.06
14774 H 72.46060240926673 16.655662890416778 -0.3854245467270232 H 0.0 **** 0.06
14775 H 72.9934972612088 17.587321210300374 1.0336977227772195 H 0.0 **** 0.06
14776 C 90.80740805716158 12.379538551394376 22.54059260406828 C 0.0 **** -0.24
14777 H 90.84924200269674 11.341738458310772 22.871758177517194 H 0.0 **** 0.06
14778 H 90.35291625351005 12.991587699372303 23.319725313110098 H 0.0 **** 0.06
14779 H 90.21092212864573 12.445891536860358 21.631191424583136 H 0.0 **** 0.06
14780 H 91.81803668126109 12.736383416635022 22.340222207037925 H 0.0 **** 0.06
14781 C 100.38552037012718 12.749282042761365 16.372760423660214 C 0.0 **** -0.24
14782 H 100.24805459218209 13.793319604511936 16.65399779042715 H 0.0 **** 0.06
14783 H 100.1453814896384 12.6240650713697 15.316440958280118 H 0.0 **** 0.06
14784 H 99.72606648440309 12.122720915556272 16.972965753746422 H 0.0 **** 0.06
14785 H 101.42076667815594 12.45865937072739 16.547829589447066 H 0.0 **** 0.06
14786 C 52.223447257966676 1.8152743452975244 18.134334114695037 C 0.0 **** -0.24
14787 H 53.00051338770347 2.469518204675788 17.740473887622983 H 0.0 **** 0.06
14788 H 51.93522295580041 1.0930671258451774 17.370116053590124 H 0.0 **** 0.06
14789 H 51.35490016625066 2.4121044475241487 18.416360020779663 H 0.0 **** 0.06
14790 H 52.601854652365134 1.2884773514319177 19.01020767337667 H 0.0 **** 0.06
14791 C 43.64550759928186 53.86436408422682 106.00854231069393 C 0.0 **** -0.24
14792 H 43.11752417651963 53.183353621752616 106.67586155566994 H 0.0 **** 0.06
14793 H 43.47476977739202 54.891869288188786 106.32971419947454 H 0.0 **** 0.06
14794 H 43.2770544214698 53.73427164311434 104.99090585669104 H 0.0 **** 0.06
14795 H 44.713583352977274 53.64624375405043 106.03879948839536 H 0.0 **** 0.06
14796 C 81.70713500952485 50.05104589366231 62.79641404243608 C 0.0 **** -0.24
14797 H 80.92518838142352 50.686971600185636 63.21138234877111 H 0.0 **** 0.06
14798 H 82.04530642233325 50.46449183653889 61.845602104186696 H 0.0 **** 0.06
14799 H 81.31273199952729 49.047311925428936 62.637448232522274 H 0.0 **** 0.06
14800 H 82.54541172554286 50.00611904154994 63.491919955304695 H 0.0 **** 0.06
14801 C 19.55819374586621 72.83350659840482 18.100740994449154 C 0.0 **** -0.24
14802 H 19.086766171919994 73.37993638781569 17.283220772583945 H 0.0 **** 0.06
14803 H 19.141932854292737 71.82692477841192 18.152293818216066 H 0.0 **** 0.06
14804 H 19.371243862285166 73.35298135530721 19.040262372438775 H 0.0 **** 0.06
14805 H 20.632119511596976 72.7745143926141 17.92509339747059 H 0.0 **** 0.06
14806 C 105.10196052076259 94.28335642967897 82.90271575303059 C 0.0 **** -0.24
14807 H 104.75115618687903 95.21632335078388 82.46146777323702 H 0.0 **** 0.06
14808 H 104.25459262629806 93.7381303166037 83.31910126899672 H 0.0 **** 0.06
14809 H 105.81809501217316 94.50238368380329 83.69435907845943 H 0.0 **** 0.06
14810 H 105.58307305591057 93.67718747575333 82.13459876949892 H 0.0 **** 0.06
14811 C 50.01935269192347 42.63683322215596 52.98885091761517 C 0.0 **** -0.24
14812 H 50.02244305505457 43.58140379199554 52.445440768068266 H 0.0 **** 0.06
14813 H 50.96794573870755 42.51655336030714 53.51271039256401 H 0.0 **** 0.06
14814 H 49.88576104916584 41.81504891379947 52.28491797675089 H 0.0 **** 0.06
14815 H 49.20181152009448 42.63444553064144 53.70956268254301 H 0.0 **** 0.06
14816 C 93.95159359188261 43.064567579944026 49.352331121762575 C 0.0 **** -0.24
14817 H 94.46297788454905 43.279231465212945 48.41423132462563 H 0.0 **** 0.06
14818 H 94.57085293506202 43.39408706513882 50.187279959693996 H 0.0 **** 0.06
14819 H 93.77416619858991 41.991787031401316 49.43197517793541 H 0.0 **** 0.06
14820 H 92.99905862794304 43.59413080093563 49.3750616736524 H 0.0 **** 0.06
14821 C 69.63590583520588 17.880681494322744 51.62757287530353 C 0.0 **** -0.24
14822 H 68.80414203343906 17.844739267889466 52.3309922787347 H 0.0 **** 0.06
14823 H 69.32592320163502 17.446679134807383 50.676914968698775 H 0.0 **** 0.06
14824 H 70.47583918753739 17.313993505933027 52.0298680871201 H 0.0 **** 0.06
14825 H 69.93665108143179 18.917675971279948 51.47383104381748 H 0.0 **** 0.06
14826 C 59.35989189127588 24.868021721504533 4.336718888015454 C 0.0 **** -0.24
14827 H 59.41916102091551 23.830593426620908 4.664881047265766 H 0.0 **** 0.06
14828 H 58.3554947121163 25.075358233771837 3.9660685631505572 H 0.0 **** 0.06
14829 H 60.08371211633124 25.038580750397784 3.539423045419241 H 0.0 **** 0.06
14830 H 59.58122960354416 25.528121047778797 5.1748663593046444 H 0.0 **** 0.06
14831 C 14.905859040103564 89.06404670083296 83.64477402629007 C 0.0 **** -0.24
14832 H 14.700053839348897 88.31332558180864 82.88225995066023 H 0.0 **** 0.06
14833 H 14.978983790184358 88.58119155969982 84.61993374770555 H 0.0 **** 0.06
14834 H 14.096820852195549 89.79541150817636 83.66079091963695 H 0.0 **** 0.06
14835 H 15.844714636550918 89.56715410458327 83.41608476350575 H 0.0 **** 0.06
14836 C 50.9572321570072 7.487558255426848 2.5221721883510213 C 0.0 **** -0.24
14837 H 51.39736533861051 7.7299152518007475 3.4893451766230896 H 0.0 **** 0.06
14838 H 50.11262526768662 8.150803317961334 2.331096274401119 H 0.0 **** 0.06
14839 H 50.613054265127396 6.453450112204507 2.5281427112702204 H 0.0 **** 0.06
14840 H 51.70516709658365 7.618306664315753 1.7407818507203388 H 0.0 **** 0.06
14841 C 89.69495308138846 92.24459710093345 21.918563074262437 C 0.0 **** -0.24
14842 H 90.7659907466568 92.10422394391082 22.066844778822457 H 0.0 **** 0.06
14843 H 89.51039363858251 92.57745637520452 20.89750469544235 H 0.0 **** 0.06
14844 H 89.32713359580612 92.99514487959277 22.61826772241642 H 0.0 **** 0.06
14845 H 89.17747357694003 91.30148786765545 22.09353351721944 H 0.0 **** 0.06
14846 C 45.020092263203935 13.497218633824431 20.795779930798354 C 0.0 **** -0.24
14847 H 45.47795017902564 13.91587147902635 21.691357732362082 H 0.0 **** 0.06
14848 H 44.391110430531285 14.25166106500248 20.32224086043367 H 0.0 **** 0.06
14849 H 44.411794916152616 12.634811783227377 21.067900270412004 H 0.0 **** 0.06
14850 H 45.79970462363005 13.185738988949879 20.101039908399702 H 0.0 **** 0.06
14851 C 79.7575242254997 28.220036578704196 6.656853114661187 C 0.0 **** -0.24
14852 H 79.93869034091891 27.537083357620247 5.827263796894579 H 0.0 **** 0.06
14853 H 80.14005876611732 27.780748703039194 7.578622751128073 H 0.0 **** 0.06
14854 H 78.68574181862381 28.396131501595647 6.755274901638517 H 0.0 **** 0.06
14855 H 80.26487397924843 29.165368189248625 6.465356152892218 H 0.0 **** 0.06
14856 C 4.9570619019380615 42.988791658684306 49.634319554302124 C 0.0 **** -0.24
14857 H 5.941075909270268 42.5298403239662 49.53651946874237 H 0.0 **** 0.06
14858 H 4.676777201876803 43.451751774268985 48.68881593821084 H 0.0 **** 0.06
14859 H 4.987734947885542 43.74701751196402 50.4164943611313 H 0.0 **** 0.06
14860 H 4.224860165502037 42.22485258535511 49.8979490244044 H 0.0 **** 0.06
14861 C 4.194875138603223 11.832901191312374 50.48250153904962 C 0.0 **** -0.24
14862 H 3.451664717644931 12.284052382445907 51.140417671541 H 0.0 **** 0.06
14863 H 3.7209651572611904 11.062083138294327 49.87399957773317 H 0.0 **** 0.06
14864 H 4.987714773291998 11.386103581266525 51.08224976286314 H 0.0 **** 0.06
14865 H 4.6183291061665415 12.599443232798194 49.833896310932204 H 0.0 **** 0.06
14866 C 15.515857894896541 18.670945287102626 52.009378075900315 C 0.0 **** -0.24
14867 H 14.462652730649154 18.67579207521132 52.290938272777396 H 0.0 **** 0.06
14868 H 16.12004979753739 18.38443178076136 52.87132818319583 H 0.0 **** 0.06
14869 H 15.807132410171008 19.666771336368157 51.67600839345272 H 0.0 **** 0.06
14870 H 15.672491707240795 17.957276288861664 51.20179461996128 H 0.0 **** 0.06
14871 C 90.66399232955877 102.97055121647875 25.42367713675634 C 0.0 **** -0.24
14872 H 89.7113101462989 102.45335507744181 25.306580686534858 H 0.0 **** 0.06
14873 H 90.627042925414 103.92341562100887 24.89482371178235 H 0.0 **** 0.06
14874 H 91.46432655677975 102.35578398859974 25.01068420822321 H 0.0 **** 0.06
14875 H 90.85199874550636 103.14860811268699 26.48212223385059 H 0.0 **** 0.06
14876 C 43.594439224785866 103.8402124463741 76.42583949152753 C 0.0 **** -0.24
14877 H 43.557680570247484 104.90243025850924 76.66673746148507 H 0.0 **** 0.06
14878 H 42.82251180620876 103.31296394367439 76.98722158457771 H 0.0 **** 0.06
14879 H 44.57372674506778 103.44122273100913 76.69129366761754 H 0.0 **** 0.06
14880 H 43.424511806067855 103.70384301891983 75.35747774477176 H 0.0 **** 0.06
14881 C 83.9846066896801 79.60195722035459 3.713808586492547 C 0.0 **** -0.24
14882 H 83.11194069446829 80.05075176202719 3.2404364298174926 H 0.0 **** 0.06
14883 H 84.76767560100323 79.45764351061644 2.9688747587744047 H 0.0 **** 0.06
14884 H 83.70897125726478 78.63868506705022 4.14357668941301 H 0.0 **** 0.06
14885 H 84.34983920598415 80.26074854172452 4.502346467965168 H 0.0 **** 0.06
14886 C 86.83386960082666 0.029753295589699746 14.244159889997093 C 0.0 **** -0.24
14887 H 86.79940731561629 1.117798646496567 14.298816937017534 H 0.0 **** 0.06
14888 H 85.94165082124573 -0.3364137970243348 13.736368559319374 H 0.0 **** 0.06
14889 H 86.87495821334039 -0.38359738823214684 15.251905229678243 H 0.0 **** 0.06
14890 H 87.72048152559648 -0.27775967625430553 13.688583739066132 H 0.0 **** 0.06
14891 C 101.80724252542649 61.111214194227614 9.51581725914967 C 0.0 **** -0.24
14892 H 102.70728142680812 61.03018326938222 10.125542370979119 H 0.0 **** 0.06
14893 H 101.99775483926769 61.77765632140809 8.674853134489268 H 0.0 **** 0.06
14894 H 100.9932451596061 61.510600917581286 10.120263479223311 H 0.0 **** 0.06
14895 H 101.53210753635427 60.12469121454113 9.142503865959853 H 0.0 **** 0.06
14896 C 73.85709504100018 43.68587979868057 109.55386394605546 C 0.0 **** -0.24
14897 H 74.62330543518901 43.31279934769648 110.23288552322614 H 0.0 **** 0.06
14898 H 74.21275310882045 43.60602717612409 108.5259978587834 H 0.0 **** 0.06
14899 H 73.64488832671006 44.72956347512556 109.78510712874045 H 0.0 **** 0.06
14900 H 72.94822547965308 43.09573946662439 109.67145749388821 H 0.0 **** 0.06
14901 C 56.60545720680494 55.98612871652307 76.88733226318709 C 0.0 **** -0.24
14902 H 57.3975344099799 56.7053140192516 77.09791948854334 H 0.0 **** 0.06
14903 H 57.03495849465821 54.98842673017327 76.79829796008187 H 0.0 **** 0.06
14904 H 56.1103148108009 56.25375372018601 75.95438448837155 H 0.0 **** 0.06
14905 H 55.879634569567 55.99798293111979 77.70064999068319 H 0.0 **** 0.06
14906 C 34.099913181393816 7.193212391419124 59.75470908131871 C 0.0 **** -0.24
14907 H 34.75737933435022 7.730769337707102 59.07081174886035 H 0.0 **** 0.06
14908 H 34.45628680697695 7.3238297139430415 60.7767216592606 H 0.0 **** 0.06
14909 H 34.10110013012036 6.13338185570278 59.50121050460578 H 0.0 **** 0.06
14910 H 33.08697869760289 7.587111899551587 59.6693237196253 H 0.0 **** 0.06
14911 C 24.225803172170316 57.477570867734606 13.084079090258228 C 0.0 **** -0.24
14912 H 23.71844542815009 58.308350592442785 13.57462257179526 H 0.0 **** 0.06
14913 H 23.965645862356297 57.467459094370305 12.024870074681587 H 0.0 **** 0.06
14914 H 23.914143684769357 56.53967865365467 13.543897854233819 H 0.0 **** 0.06
14915 H 25.304137068998443 57.59570791685437 13.19224745148307 H 0.0 **** 0.06
14916 C 17.300420047277044 23.092414124646215 82.19000912418221 C 0.0 **** -0.24
14917 H 17.0233058270653 22.838303723140687 81.1661866695024 H 0.0 **** 0.06
14918 H 17.61864456133756 24.133931830080886 82.23163534688229 H 0.0 **** 0.06
14919 H 18.117777818957563 22.448435659431663 82.5147979010888 H 0.0 **** 0.06
14920 H 16.440442675946883 22.948449284249865 82.84468982276286 H 0.0 **** 0.06
14921 C 36.664620645301056 93.72133811496745 49.96722653618406 C 0.0 **** -0.24
14922 H 35.57529741636449 93.69868484094589 49.93743626936026 H 0.0 **** 0.06
14923 H 37.004926510878704 94.75435121590591 50.02894779756531 H 0.0 **** 0.06
14924 H 37.06172977657491 93.2603264501729 49.06304165562278 H 0.0 **** 0.06
14925 H 37.01455113027271 93.16976810277667 50.8398707440125 H 0.0 **** 0.06
14926 C 48.63094642178248 43.820388732937886 64.85391623880594 C 0.0 **** -0.24
14927 H 49.46558792452379 43.29355402132455 65.31470295741093 H 0.0 **** 0.06
14928 H 47.88528550892897 43.098650172235864 64.5204316272559 H 0.0 **** 0.06
14929 H 48.990808467247916 44.393427549575335 63.99949506341778 H 0.0 **** 0.06
14930 H 48.182644260116774 44.49711000235908 65.58158253824763 H 0.0 **** 0.06
14931 C 92.1358943621147 26.855676503596676 47.24577533132303 C 0.0 **** -0.24
14932 H 92.84603875425748 26.433246653261897 47.95697693327988 H 0.0 **** 0.06
14933 H 92.51857962612074 26.729655833805666 46.232416279577606 H 0.0 **** 0.06
14934 H 92.00040051759889 27.916682982116406 47.45444343850021 H 0.0 **** 0.06
14935 H 91.17902496635838 26.341790074704782 47.33915329602646 H 0.0 **** 0.06
14936 C 23.9825125747098 21.29268265953496 46.51873985915404 C 0.0 **** -0.24
14937 H 24.827019329746577 20.635905615050262 46.311525102659346 H 0.0 **** 0.06
14938 H 24.263966900937817 22.324487875070588 46.307143033025795 H 0.0 **** 0.06
14939 H 23.70057021520887 21.200640095169177 47.568689628159575 H 0.0 **** 0.06
14940 H 23.138488056998227 21.009827098637203 45.89076134953888 H 0.0 **** 0.06
14941 C 52.18375558060575 52.67371209036958 33.39178449468638 C 0.0 **** -0.24
14942 H 51.64752609738184 52.12043719544704 32.620254453444446 H 0.0 **** 0.06
14943 H 53.19790005390314 52.28458170318879 33.47918720112921 H 0.0 **** 0.06
14944 H 51.66741344233077 52.56160431859223 34.34486756949571 H 0.0 **** 0.06
14945 H 52.22130218006046 53.729330706824726 33.12082808804645 H 0.0 **** 0.06
14946 C 88.29853102285861 88.62989384573497 62.33772911431379 C 0.0 **** -0.24
14947 H 88.88843994536272 88.43276199737782 63.23336535482247 H 0.0 **** 0.06
14948 H 87.27277832196796 88.29546008412524 62.4973231523914 H 0.0 **** 0.06
14949 H 88.72957544614303 88.09075323268918 61.49376414537562 H 0.0 **** 0.06
14950 H 88.30383680354112 89.69900396814154 62.12690668932254 H 0.0 **** 0.06
14951 C 8.222025879117922 92.7000199383985 63.3418590013998 C 0.0 **** -0.24
14952 H 7.443834273627047 92.12670570151607 63.845530854281336 H 0.0 **** 0.06
14953 H 8.265720803120672 93.70328758038534 63.765979898747034 H 0.0 **** 0.06
14954 H 7.995216045655411 92.76410115246404 62.27757725468875 H 0.0 **** 0.06
14955 H 9.18363857656503 92.20460879939242 63.47845545007897 H 0.0 **** 0.06
14956 C 62.7724785278009 69.18323543943474 20.332781355935424 C 0.0 **** -0.24
14957 H 62.216235187474666 69.98309365552743 19.843904156417523 H 0.0 **** 0.06
14958 H 62.89374369092292 69.42052900275726 21.390707801087217 H 0.0 **** 0.06
14959 H 63.75295268892023 69.08631119785309 19.866723597638014 H 0.0 **** 0.06
14960 H 62.22707025946343 68.24578739287534 20.230915562487297 H 0.0 **** 0.06
14961 C 51.134223099097866 34.767414894325384 51.85052983952311 C 0.0 **** -0.24
14962 H 50.73586365434505 33.94339796311215 52.44157596944644 H 0.0 **** 0.06
14963 H 52.139437892444796 35.00874322197137 52.19437359776257 H 0.0 **** 0.06
14964 H 50.490975019518544 35.64053902951994 51.96582923269288 H 0.0 **** 0.06
14965 H 51.167799098503764 34.47782910768332 50.79975369434972 H 0.0 **** 0.06
14966 C 60.93165563349123 25.176665379086216 50.13093696537766 C 0.0 **** -0.24
14967 H 60.05158972512595 25.516409574763088 50.67674975169973 H 0.0 **** 0.06
14968 H 61.82982378073308 25.43423072571244 50.692737491897844 H 0.0 **** 0.06
14969 H 60.961975109681305 25.659510590902357 49.15428044784801 H 0.0 **** 0.06
14970 H 60.88191022333024 24.096068045200468 49.99975201441276 H 0.0 **** 0.06
14971 C 16.822050828043416 59.02254873103324 92.30030248557233 C 0.0 **** -0.24
14972 H 16.41807269148093 59.97270736758858 91.9511249470567 H 0.0 **** 0.06
14973 H 16.20526268792065 58.20519026309558 91.92621389434856 H 0.0 **** 0.06
14974 H 16.82472646876954 59.00728360693121 93.38993936126687 H 0.0 **** 0.06
14975 H 17.84203122595335 58.90556937068709 91.9324756089438 H 0.0 **** 0.06
14976 C 44.08351297544863 95.11530051657107 107.58179548087563 C 0.0 **** -0.24
14977 H 45.0646215176173 94.68606657874128 107.37769990180666 H 0.0 **** 0.06
14978 H 43.64236248341126 94.61890155799047 108.44632024366749 H 0.0 **** 0.06
14979 H 43.43831258604371 94.97542249709362 106.71394562362735 H 0.0 **** 0.06
14980 H 44.188381288766436 96.18042495584729 107.78837307036602 H 0.0 **** 0.06
14981 C 19.832029343140647 95.54963459666294 90.41005080020561 C 0.0 **** -0.24
14982 H 20.88045212064211 95.47098680563695 90.6992462046956 H 0.0 **** 0.06
14983 H 19.39340197217846 96.43421811949852 90.873144542829 H 0.0 **** 0.06
14984 H 19.29567265129669 94.66135352053215 90.74187589975752 H 0.0 **** 0.06
14985 H 19.759860325122887 95.63402162391041 89.32546782884458 H 0.0 **** 0.06
14986 C 79.28950236612332 34.17092277524989 70.35339529444752 C 0.0 **** -0.24
14987 H 78.498291082624 34.91598854353333 70.44442553149798 H 0.0 **** 0.06
14988 H 79.87628258827189 34.37277149355975 69.45795309326138 H 0.0 **** 0.06
14989 H 78.84551161918809 33.17760297110439 70.2810920287302 H 0.0 **** 0.06
14990 H 79.93505566753618 34.21842439895289 71.23086569574923 H 0.0 **** 0.06
14991 C 74.67706058815068 35.47661030337488 100.58207913555879 C 0.0 **** -0.24
14992 H 74.65575856432923 34.68339987120018 101.32943391712888 H 0.0 **** 0.06
14993 H 75.64828990931511 35.483201275928025 100.0872449198755 H 0.0 **** 0.06
14994 H 74.50965258189774 36.43764047350925 101.06790346548468 H 0.0 **** 0.06
14995 H 73.89368373720589 35.300694874671535 99.84371046804415 H 0.0 **** 0.06
14996 C 30.769974118387793 108.57747202436275 83.07513091166473 C 0.0 **** -0.24
14997 H 31.200921161619718 109.57800925904974 83.08074832421508 H 0.0 **** 0.06
14998 H 31.436236022002035 107.89211685693442 83.60043955962533 H 0.0 **** 0.06
14999 H 30.64168224931607 108.24238566759362 82.04573396365868 H 0.0 **** 0.06
15000 H 29.800645538832264 108.59646522558512 83.57357660604191 H 0.0 **** 0.06
15001 C 22.980009640676183 107.7527317722666 60.17256574918869 C 0.0 **** -0.24
15002 H 22.606783264107865 106.80278449158766 60.55689898125769 H 0.0 **** 0.06
15003 H 22.70432664252241 107.85291020684309 59.12310452430876 H 0.0 **** 0.06
15004 H 24.0660583291246 107.78067249296808 60.268223269072934 H 0.0 **** 0.06
15005 H 22.544337437175272 108.57226774579658 60.743298790879635 H 0.0 **** 0.06
15006 C 33.31090851311532 30.01524103560274 78.91831190342836 C 0.0 **** -0.24
15007 H 32.801703642328135 30.699899282422933 78.2403508462469 H 0.0 **** 0.06
15008 H 34.350480159221036 30.32541789585673 79.03506361776329 H 0.0 **** 0.06
15009 H 33.277820820665056 29.005816384361538 78.50785382970794 H 0.0 **** 0.06
15010 H 32.81640616444065 30.02953405974938 79.88952962530256 H 0.0 **** 0.06
15011 C 80.00785723510504 16.279175772512232 93.88892086583456 C 0.0 **** -0.24
15012 H 79.27074698231863 16.23956201967536 94.69107108233732 H 0.0 **** 0.06
15013 H 80.9977313681959 16.443992155843418 94.31393788866251 H 0.0 **** 0.06
15014 H 79.76252783690921 17.095843227506208 93.21100242244239 H 0.0 **** 0.06
15015 H 79.99900862549748 15.336727735350365 93.3413050018197 H 0.0 **** 0.06
15016 C 74.57164299280765 58.91529198258729 34.714614826857186 C 0.0 **** -0.24
15017 H 74.76465815349883 59.4766056144839 35.628234458972926 H 0.0 **** 0.06
15018 H 75.02807201273498 57.92791856960895 34.791472338491275 H 0.0 **** 0.06
15019 H 74.99780370077326 59.447522077333446 33.863804071101015 H 0.0 **** 0.06
15020 H 73.4958521032265 58.80827515837552 34.57383088614557 H 0.0 **** 0.06
15021 C 53.44321261805272 64.08515935010041 67.52754074692734 C 0.0 **** -0.24
15022 H 53.887781208807695 63.443494708604106 66.76675103128179 H 0.0 **** 0.06
15023 H 52.40370721452168 63.79649713753702 67.68404758189735 H 0.0 **** 0.06
15024 H 53.48588352361673 65.122642939826 67.19659708517247 H 0.0 **** 0.06
15025 H 53.995520072548686 63.97798020816202 68.46031819290283 H 0.0 **** 0.06
15026 C 93.62079112424125 95.73820962827976 19.608239023598056 C 0.0 **** -0.24
15027 H 93.80331478391162 94.67399083793856 19.45899689112876 H 0.0 **** 0.06
15028 H 94.54874363980046 96.22720510643043 19.907169378143905 H 0.0 **** 0.06
15029 H 92.87173260334951 95.87202653332909 20.388142900310083 H 0.0 **** 0.06
15030 H 93.26141997678572 96.17828132035467 18.67847186213918 H 0.0 **** 0.06
15031 C 52.96415247235532 80.46560853215135 17.856076757093803 C 0.0 **** -0.24
15032 H 51.977012792153886 80.11805618114545 17.55331069782332 H 0.0 **** 0.06
15033 H 53.72704529007916 79.83239206111796 17.40116108086667 H 0.0 **** 0.06
15034 H 53.04988851534503 80.41568979340272 18.941382780111127 H 0.0 **** 0.06
15035 H 53.10309230193121 81.4953038013557 17.526495032692537 H 0.0 **** 0.06
15036 C 80.43450604173375 93.22529817519523 82.68004535739891 C 0.0 **** -0.24
15037 H 79.63833838347716 92.73210596025285 83.23641677908068 H 0.0 **** 0.06
15038 H 80.01167358621831 93.72370532615548 81.80683757114781 H 0.0 **** 0.06
15039 H 81.16635398702769 92.48493759977276 82.35752633846016 H 0.0 **** 0.06
15040 H 80.9204565890135 93.96256666824422 83.3196241252507 H 0.0 **** 0.06
15041 C 43.645799400044666 71.06948772717328 52.111873254492366 C 0.0 **** -0.24
15042 H 42.679516531695526 70.65273339208585 51.827487983583296 H 0.0 **** 0.06
15043 H 43.901101622447754 71.88642214543864 51.43740707205052 H 0.0 **** 0.06
15044 H 44.40880738499959 70.29298356769169 52.04781160945731 H 0.0 **** 0.06
15045 H 43.59312190637931 71.44367288506254 53.13473557564339 H 0.0 **** 0.06
15046 C 20.031247585730284 34.29942807809552 89.41486432803774 C 0.0 **** -0.24
15047 H 20.3429461534233 33.54631159422726 88.69098498143732 H 0.0 **** 0.06
15048 H 19.814643747001412 33.81786871732433 90.36907455266727 H 0.0 **** 0.06
15049 H 19.136413448462775 34.804636247953056 89.05226638209702 H 0.0 **** 0.06
15050 H 20.83067018112513 35.027863725028226 89.54848590653691 H 0.0 **** 0.06
15051 C 30.709062948286522 29.771805764606313 89.86432468297494 C 0.0 **** -0.24
15052 H 30.2215037443586 29.594526770770415 90.82313276100876 H 0.0 **** 0.06
15053 H 30.044524691813443 30.348270092450463 89.22022954226156 H 0.0 **** 0.06
15054 H 30.935505134533294 28.81664175610959 89.38994043712637 H 0.0 **** 0.06
15055 H 31.633414121236335 30.327239133336576 90.02404140331691 H 0.0 **** 0.06
15056 C 100.69176281177951 62.10888163490998 91.6878689726282 C 0.0 **** -0.24
15057 H 100.48720133318548 63.17558910044886 91.59128966198827 H 0.0 **** 0.06
15058 H 99.97744532653428 61.54613823191809 91.0861579382835 H 0.0 **** 0.06
15059 H 100.59902127192336 61.81469662685089 92.73365095514596 H 0.0 **** 0.06
15060 H 101.70375994006258 61.9003306171405 91.33978557476101 H 0.0 **** 0.06
15061 C 58.72262822885554 47.83866258137144 110.53372511970974 C 0.0 **** -0.24
15062 H 58.34532244549919 48.731959080622794 110.03630535223704 H 0.0 **** 0.06
15063 H 58.36570038468423 46.95219881790159 110.00905735677472 H 0.0 **** 0.06
15064 H 58.367646966246866 47.81923953033354 111.56387887284214 H 0.0 **** 0.06
15065 H 59.812841934216124 47.85123412418225 110.52561344348891 H 0.0 **** 0.06
15066 C 29.13771414706386 37.140811682174466 93.82457354902024 C 0.0 **** -0.24
15067 H 28.448764130349673 36.35168294764932 93.52283945656576 H 0.0 **** 0.06
15068 H 30.15598221294563 36.75270073958708 93.82325300857909 H 0.0 **** 0.06
15069 H 28.88050095495514 37.48278450441084 94.82759685263527 H 0.0 **** 0.06
15070 H 29.06362178075244 37.97419154091023 93.12582533110003 H 0.0 **** 0.06
15071 C 90.85488566944105 13.339722697817276 66.2838796974213 C 0.0 **** -0.24
15072 H 89.899110335876 12.819949030977575 66.22225545764803 H 0.0 **** 0.06
15073 H 91.63537543786947 12.719452161185849 65.84267913368978 H 0.0 **** 0.06
15074 H 91.09482834401837 13.536486163000081 67.3296719699826 H 0.0 **** 0.06
15075 H 90.7906630229354 14.284526532820657 65.74278084282992 H 0.0 **** 0.06
15076 C 61.10830382079024 9.626293934977374 15.525822233220993 C 0.0 **** -0.24
15077 H 61.707609077352814 8.799123180922459 15.907551895171679 H 0.0 **** 0.06
15078 H 60.403955642992955 9.252009596153629 14.783460751619444 H 0.0 **** 0.06
15079 H 61.7630689899656 10.36632088334069 15.065791348558875 H 0.0 **** 0.06
15080 H 60.560807613886325 10.087245583344549 16.34843894501114 H 0.0 **** 0.06
15081 C 35.70373987448428 66.23775052686759 83.69163426467333 C 0.0 **** -0.24
15082 H 34.94432881557928 65.46944742356567 83.83960370892684 H 0.0 **** 0.06
15083 H 35.22095278118465 67.21011510003518 83.59349917199228 H 0.0 **** 0.06
15084 H 36.269508793834945 66.0199369895832 82.7862070251314 H 0.0 **** 0.06
15085 H 36.37785034807528 66.25071307593441 84.54724498288094 H 0.0 **** 0.06
15086 C 57.282383415207164 75.44680053241075 15.04561742161156 C 0.0 **** -0.24
15087 H 56.694270294529275 74.79064386325872 14.404269546695037 H 0.0 **** 0.06
15088 H 57.92889609862135 74.84502834068843 15.685870815421474 H 0.0 **** 0.06
15089 H 56.61368988300805 76.0459612464197 15.663193410882428 H 0.0 **** 0.06
15090 H 57.89378059375599 76.10494548968066 14.42850768976447 H 0.0 **** 0.06
15091 C 90.15195464740532 11.243762263746646 47.66542018110224 C 0.0 **** -0.24
15092 H 91.08523894650085 10.683758869904906 47.59785241997551 H 0.0 **** 0.06
15093 H 89.41460487415722 10.655421325935933 48.2111810843979 H 0.0 **** 0.06
15094 H 89.78097583200076 11.451829894895937 46.66117749258028 H 0.0 **** 0.06
15095 H 90.32838600262295 12.182629804064675 48.18921345421786 H 0.0 **** 0.06
15096 C 32.836285277187244 71.97261618499266 62.28243405804969 C 0.0 **** -0.24
15097 H 31.85156562073496 72.37198919494989 62.52413656779399 H 0.0 **** 0.06
15098 H 32.91614153570538 70.9523099574094 62.65815594343016 H 0.0 **** 0.06
15099 H 33.603798243135316 72.59184730458077 62.746529295716954 H 0.0 **** 0.06
15100 H 32.97328567712384 71.9734047818352 61.20112189431083 H 0.0 **** 0.06
15101 C 49.490084805513106 68.99315294790041 56.63665399652828 C 0.0 **** -0.24
15102 H 50.203762344805455 68.17624866652007 56.741217238529345 H 0.0 **** 0.06
15103 H 49.40667726547076 69.52594875664026 57.584131997523514 H 0.0 **** 0.06
15104 H 48.5159342984029 68.59261023550378 56.35692192067182 H 0.0 **** 0.06
15105 H 49.83588039183104 69.68000860585984 55.86365691505276 H 0.0 **** 0.06
15106 C 54.668371926230776 91.401575016155 49.24922823722872 C 0.0 **** -0.24
15107 H 54.41872994166709 91.30109248735675 50.30509841455461 H 0.0 **** 0.06
15108 H 53.88351097782139 91.96582129316522 48.7432595849686 H 0.0 **** 0.06
15109 H 54.752649572633615 90.41211473562032 48.80024678544103 H 0.0 **** 0.06
15110 H 55.61689354437362 91.9286500474579 49.14875258023983 H 0.0 **** 0.06
15111 C 73.02821786748643 74.16346278807788 110.79559906524082 C 0.0 **** -0.24
15112 H 72.21647145235039 74.79824748564356 110.43969893954693 H 0.0 **** 0.06
15113 H 73.87256679735367 74.23588712985953 110.11085511459169 H 0.0 **** 0.06
15114 H 72.68636103497033 73.12948059110272 110.84400841927265 H 0.0 **** 0.06
15115 H 73.3358260885496 74.49117397877882 111.78938645016899 H 0.0 **** 0.06
15116 C 15.502249332130116 73.74594678075437 45.469896104197176 C 0.0 **** -0.24
15117 H 16.551954975309126 73.46832860645695 45.37494908193159 H 0.0 **** 0.06
15118 H 15.17110730287509 73.5704408868325 46.493044347894426 H 0.0 **** 0.06
15119 H 14.904245582655403 73.14345721046328 44.78541994264708 H 0.0 **** 0.06
15120 H 15.381711663507769 74.80135394954927 45.22394458322515 H 0.0 **** 0.06
15121 C 63.593888312209344 46.01402346055346 87.29696000097508 C 0.0 **** -0.24
15122 H 62.71725562638687 45.650414561191724 87.83254884191996 H 0.0 **** 0.06
15123 H 63.58747876954112 45.62188779908729 86.27977157609021 H 0.0 **** 0.06
15124 H 64.49669823767607 45.679957168530905 87.80932192091745 H 0.0 **** 0.06
15125 H 63.57568481698058 47.10353627566775 87.26776760057311 H 0.0 **** 0.06
15126 C 81.99916151638314 35.74613723415047 21.526035683829065 C 0.0 **** -0.24
15127 H 81.53548562400789 35.35534544796343 20.620800282779328 H 0.0 **** 0.06
15128 H 81.31187009365084 36.437674374791015 22.015966027804993 H 0.0 **** 0.06
15129 H 82.91797676168028 36.27089298339371 21.266090241226223 H 0.0 **** 0.06
15130 H 82.22865925563767 34.922263298253256 22.201840581402493 H 0.0 **** 0.06
15131 C 20.749070773008327 34.52075568491324 2.0429307973907385 C 0.0 **** -0.24
15132 H 20.14969614189829 34.64564328164772 1.1408931637666768 H 0.0 **** 0.06
15133 H 20.369292850375587 33.67369637620817 2.6155520211391803 H 0.0 **** 0.06
15134 H 20.687092589853137 35.42528929577776 2.648520936475677 H 0.0 **** 0.06
15135 H 21.787270736279027 34.33720590356188 1.7667550711801 H 0.0 **** 0.06
15136 C 69.5359613386072 21.311378271181987 9.913616643318612 C 0.0 **** -0.24
15137 H 68.83941135256106 22.09220989568932 9.607809779865882 H 0.0 **** 0.06
15138 H 69.6242930084575 21.309442210308557 11.00064496246872 H 0.0 **** 0.06
15139 H 70.51341857180509 21.50257473972046 9.469608703395226 H 0.0 **** 0.06
15140 H 69.1666472229527 20.34284242139694 9.577159958021909 H 0.0 **** 0.06
15141 C 73.14321370516768 51.17957077820245 55.35069996286211 C 0.0 **** -0.24
15142 H 73.78510637103875 51.64615119000888 56.098247472482285 H 0.0 **** 0.06
15143 H 73.58132504695766 50.23124206773639 55.037778414390715 H 0.0 **** 0.06
15144 H 73.05096011595595 51.839533027718915 54.48831268344827 H 0.0 **** 0.06
15145 H 72.1573905536655 51.001046811880144 55.778896865373355 H 0.0 **** 0.06
15146 C 58.54789536861256 1.5543309408066932 25.910971534855825 C 0.0 **** -0.24
15147 H 57.517276009607485 1.1977688915447828 25.92197337943838 H 0.0 **** 0.06
15148 H 58.69957943778189 2.1976932518294205 25.043685156379972 H 0.0 **** 0.06
15149 H 59.225848913449965 0.702912936581626 25.855599343014045 H 0.0 **** 0.06
15150 H 58.746020981826405 2.1177734044255345 26.821948750738933 H 0.0 **** 0.06
15151 C 46.240594063029164 95.42646196346206 69.11405609544141 C 0.0 **** -0.24
15152 H 45.19020517035446 95.65027253394686 68.93183189392846 H 0.0 **** 0.06
15153 H 46.585032643368294 94.68800453423479 68.38923371524959 H 0.0 **** 0.06
15154 H 46.35765163783435 95.02907539469591 70.12259722235521 H 0.0 **** 0.06
15155 H 46.82948680055938 96.33849539097099 69.01256155023286 H 0.0 **** 0.06
15156 C 80.55803226789777 89.50705566920259 60.12040754377311 C 0.0 **** -0.24
15157 H 80.00668304055912 90.28908836734252 59.59924387121825 H 0.0 **** 0.06
15158 H 80.4772766620161 88.57223658374998 59.56422985292899 H 0.0 **** 0.06
15159 H 80.1426120952093 89.37305225709767 61.11866294409404 H 0.0 **** 0.06
15160 H 81.6073623723139 89.79370752991731 60.19864333427877 H 0.0 **** 0.06
15161 C 68.61798102053662 104.74164661806492 75.76357443625493 C 0.0 **** -0.24
15162 H 68.0424475128417 104.74883356778449 74.8385175695331 H 0.0 **** 0.06
15163 H 69.65602856717001 104.99517104134634 75.54690320429947 H 0.0 **** 0.06
15164 H 68.57189495659907 103.7493815380949 76.21299722978326 H 0.0 **** 0.06
15165 H 68.20155501296841 105.47389002605985 76.45660386770612 H 0.0 **** 0.06
15166 C 86.98016630068886 15.009365419900178 98.80520563458998 C 0.0 **** -0.24
15167 H 87.18939854469596 15.221418888191351 97.75700484532155 H 0.0 **** 0.06
15168 H 87.11129847753301 13.94401910391963 98.99335526564687 H 0.0 **** 0.06
15169 H 85.95458013254594 15.295668184175497 99.0360008216901 H 0.0 **** 0.06
15170 H 87.66619462357784 15.577417249839243 99.4339901922122 H 0.0 **** 0.06
15171 C 74.09376582096971 64.50631978204814 13.701899076882654 C 0.0 **** -0.24
15172 H 73.0576339061418 64.17317444735198 13.768145700366517 H 0.0 **** 0.06
15173 H 74.5335181125705 64.13986174513707 12.773787440614171 H 0.0 **** 0.06
15174 H 74.65560433689302 64.11643588699678 14.550529590874447 H 0.0 **** 0.06
15175 H 74.12617688724357 65.5956595984618 13.714469169908881 H 0.0 **** 0.06
15176 C 1.8194990338183743 47.62296647801059 98.35670440648323 C 0.0 **** -0.24
15177 H 0.938520397980767 47.818188569906155 98.96841816815572 H 0.0 **** 0.06
15178 H 2.6975072947906824 47.54998075111208 98.99864857846275 H 0.0 **** 0.06
15179 H 1.9556837089190822 48.437734061129504 97.64616010140487 H 0.0 **** 0.06
15180 H 1.6847194994231813 46.68698763699692 97.81481529775105 H 0.0 **** 0.06
15181 C 50.093574284992314 3.9705813693320966 52.412694455130406 C 0.0 **** -0.24
15182 H 49.09942338322895 4.293690525327689 52.72268675540815 H 0.0 **** 0.06
15183 H 50.002174767517545 3.2068286005713613 51.64122928789524 H 0.0 **** 0.06
15184 H 50.624963423131874 3.560059995547171 53.27052978374047 H 0.0 **** 0.06
15185 H 50.64566114620328 4.823393402729938 52.017740706120236 H 0.0 **** 0.06
15186 C 95.01922503903705 84.36808479524183 7.150104719972774 C 0.0 **** -0.24
15187 H 93.94404262530374 84.54648660808812 7.139091306345506 H 0.0 **** 0.06
15188 H 95.5458936274571 85.32186881251386 7.1680753396314 H 0.0 **** 0.06
15189 H 95.30417349551763 83.81190991640585 6.257168215522398 H 0.0 **** 0.06
15190 H 95.28248059656723 83.79080656276076 8.036630018277123 H 0.0 **** 0.06
15191 C 55.73434113537019 21.7633384102829 102.11479515411227 C 0.0 **** -0.24
15192 H 54.92608614829618 21.09431110048834 102.4095493718394 H 0.0 **** 0.06
15193 H 55.60264897669845 22.05532305593067 101.07251979907049 H 0.0 **** 0.06
15194 H 56.69030061122089 21.25174743530806 102.2315424988765 H 0.0 **** 0.06
15195 H 55.71923615323709 22.65187860991358 102.74597887226173 H 0.0 **** 0.06
15196 C 20.28442158213568 34.39702706973486 49.95782719352915 C 0.0 **** -0.24
15197 H 19.64979239938259 35.277145238186435 49.853124982874355 H 0.0 **** 0.06
15198 H 20.9909363059201 34.553015113487916 50.7733971994626 H 0.0 **** 0.06
15199 H 20.831819104321397 34.23319848902378 49.02852370139477 H 0.0 **** 0.06
15200 H 19.666052871616472 33.5258208121561 50.17309797009985 H 0.0 **** 0.06
15201 C 53.93184929092219 67.46771920912023 7.686848216133939 C 0.0 **** -0.24
15202 H 53.43740483617073 67.70368292611828 8.629501158472834 H 0.0 **** 0.06
15203 H 53.319464468961854 67.82151346237167 6.85789758438105 H 0.0 **** 0.06
15204 H 54.06376072496425 66.3888816526114 7.607383714359457 H 0.0 **** 0.06
15205 H 54.90547013666832 67.95640909955823 7.655093618623766 H 0.0 **** 0.06
15206 C 33.218769578411866 46.17005520276927 8.388238490175471 C 0.0 **** -0.24
15207 H 32.96208389540431 45.85548816522751 9.400825214782662 H 0.0 **** 0.06
15208 H 32.41665718169351 46.79126045524652 7.9880516140298905 H 0.0 **** 0.06
15209 H 33.34803626701766 45.29047088876445 7.757261224275856 H 0.0 **** 0.06
15210 H 34.14632527242267 46.74176585245718 8.410217545524215 H 0.0 **** 0.06
15211 C 48.24028424742287 38.36534264875809 24.622895955792387 C 0.0 **** -0.24
15212 H 48.21568931668441 39.44017806810095 24.441960419775278 H 0.0 **** 0.06
15213 H 47.38133674249552 37.896110192120716 24.14196781616746 H 0.0 **** 0.06
15214 H 48.20411148014971 38.17689961784686 25.695368068320892 H 0.0 **** 0.06
15215 H 49.15921393514622 37.9490473574819 24.211008646960533 H 0.0 **** 0.06
15216 C 4.651832494477517 58.720570263727936 11.23846581205298 C 0.0 **** -0.24
15217 H 5.189061105320945 59.63676729247216 10.993749350193362 H 0.0 **** 0.06
15218 H 4.461953668472901 58.68717121854276 12.312506499941865 H 0.0 **** 0.06
15219 H 5.25359480689113 57.858310599998596 10.94989144940816 H 0.0 **** 0.06
15220 H 3.7045515321375717 58.69987462320606 10.700975227578859 H 0.0 **** 0.06
15221 C 103.60439867797112 28.071626764062103 42.70895277921028 C 0.0 **** -0.24
15222 H 103.64137546625182 29.16099492116379 42.701848616594305 H 0.0 **** 0.06
15223 H 103.83442067071304 27.706369240299438 43.70956235733212 H 0.0 **** 0.06
15224 H 104.33352394474637 27.678653733573285 42.00082126300998 H 0.0 **** 0.06
15225 H 102.60531288680231 27.741294789848396 42.42232206179716 H 0.0 **** 0.06
15226 C 62.987751280313134 63.52212480499162 32.038401622596695 C 0.0 **** -0.24
15227 H 62.527302064770964 62.79678671083707 31.366921953007 H 0.0 **** 0.06
15228 H 62.961604211667876 64.5104455766035 31.579511535615772 H 0.0 **** 0.06
15229 H 64.02307963567189 63.23539039073262 32.22716705129716 H 0.0 **** 0.06
15230 H 62.439478491113505 63.54244402599625 32.98009254553306 H 0.0 **** 0.06
15231 C 28.83075598353973 79.97740260664797 19.45904062269227 C 0.0 **** -0.24
15232 H 29.015057168096916 80.78097100345384 18.74537355576095 H 0.0 **** 0.06
15233 H 28.649771258036004 80.40418003096352 20.446517906836988 H 0.0 **** 0.06
15234 H 29.699814953656187 79.32150438430966 19.50001271102812 H 0.0 **** 0.06
15235 H 27.9572906103282 79.40622905370137 19.144563684424355 H 0.0 **** 0.06
15236 C 40.345071285011855 43.77995007955923 107.61723777417642 C 0.0 **** -0.24
15237 H 41.31881102629609 43.3237386737744 107.79458710057523 H 0.0 **** 0.06
15238 H 40.481573738759344 44.79204346457905 107.23610158020955 H 0.0 **** 0.06
15239 H 39.78505985384551 43.81435507159267 108.55209030672411 H 0.0 **** 0.06
15240 H 39.7946098726581 43.185942457201364 106.88649500334796 H 0.0 **** 0.06
15241 C 3.7311744919456444 28.95216752913103 22.38686989995415 C 0.0 **** -0.24
15242 H 4.4338414188652955 28.526193800144938 23.103226875800004 H 0.0 **** 0.06
15243 H 4.178545452862952 29.826256902766318 21.915122454347454 H 0.0 **** 0.06
15244 H 2.8184645209148176 29.24621871528754 22.904778310769615 H 0.0 **** 0.06
15245 H 3.493634027999896 28.208524423909182 21.62568448982603 H 0.0 **** 0.06
15246 C 31.268479651650637 53.884260394158126 105.61374330828257 C 0.0 **** -0.24
15247 H 30.39092753135202 53.815628731831936 104.97063467231021 H 0.0 **** 0.06
15248 H 31.478050875538685 54.93191038865516 105.83180332319516 H 0.0 **** 0.06
15249 H 32.12597189125108 53.44032028843558 105.10753979264501 H 0.0 **** 0.06
15250 H 31.079077987355618 53.35016708844389 106.54512942992531 H 0.0 **** 0.06
15251 C 83.75819716099925 55.22373184778971 64.19671305775266 C 0.0 **** -0.24
15252 H 83.84538372755406 56.00105790952455 64.95610784903029 H 0.0 **** 0.06
15253 H 82.92175302810075 54.5694163598246 64.44193372651264 H 0.0 **** 0.06
15254 H 84.6788985899637 54.6413907367741 64.16644059313093 H 0.0 **** 0.06
15255 H 83.58715352121777 55.68500268303944 63.22381067574756 H 0.0 **** 0.06
15256 C 85.36131652770808 108.28021315687806 102.22444582734829 C 0.0 **** -0.24
15257 H 85.21930659946207 107.34984966066119 102.77417455048118 H 0.0 **** 0.06
15258 H 85.74989358257892 109.04463597181191 102.89846915157977 H 0.0 **** 0.06
15259 H 84.40638162688651 108.60862922618347 101.81363081578314 H 0.0 **** 0.06
15260 H 86.0695919186922 108.11810173793211 101.41243563680632 H 0.0 **** 0.06
15261 C 28.294666159704597 43.80654832807761 94.9567886638501 C 0.0 **** -0.24
15262 H 27.543075753364178 44.59508004563534 94.99966457445619 H 0.0 **** 0.06
15263 H 27.866200490626106 42.876503338008945 95.332393903753 H 0.0 **** 0.06
15264 H 29.15071008753877 44.08746835906237 95.57138001534211 H 0.0 **** 0.06
15265 H 28.617499976621666 43.66830849419557 93.92521618692308 H 0.0 **** 0.06
15266 C 17.825272795556486 86.9223129588882 67.68009456429199 C 0.0 **** -0.24
15267 H 17.661047416004124 85.88500877156436 67.39055231486036 H 0.0 **** 0.06
15268 H 18.896283143745848 87.10928470749931 67.76685978681256 H 0.0 **** 0.06
15269 H 17.343880349487335 87.11244358108891 68.63906503385834 H 0.0 **** 0.06
15270 H 17.401720977259885 87.58201797298227 66.92329680694006 H 0.0 **** 0.06
15271 C 13.586116111202521 97.14767855346435 94.20610739480075 C 0.0 **** -0.24
15272 H 13.844328031954927 96.42230130143332 94.97813214600657 H 0.0 **** 0.06
15273 H 14.02331306089786 96.83743526497918 93.25619384998589 H 0.0 **** 0.06
15274 H 13.976473041870829 98.12708975322028 94.48306210523089 H 0.0 **** 0.06
15275 H 12.50202803687278 97.20212958915073 94.10673505056279 H 0.0 **** 0.06
15276 C 84.628882948843 6.6425821690260705 6.188072096334736 C 0.0 **** -0.24
15277 H 83.77778278306818 5.972951568244753 6.06294370326782 H 0.0 **** 0.06
15278 H 84.32818800123209 7.502535382811061 6.7887782518055815 H 0.0 **** 0.06
15279 H 84.97040928142223 6.982838437990154 5.211089953535463 H 0.0 **** 0.06
15280 H 85.43737504695508 6.112891429079525 6.690909970370853 H 0.0 **** 0.06
15281 C 43.582555896653645 34.75947693907 12.209005090899609 C 0.0 **** -0.24
15282 H 43.04433558888546 34.07049323998797 11.55894968046826 H 0.0 **** 0.06
15283 H 43.05448879334824 34.85183073171612 13.15848741475152 H 0.0 **** 0.06
15284 H 43.644906964791545 35.73683857474521 11.730389050702556 H 0.0 **** 0.06
15285 H 44.588340710430884 34.37770469217895 12.387486594929854 H 0.0 **** 0.06
15286 C 39.23133820902621 19.884252887449634 103.16393961437768 C 0.0 **** -0.24
15287 H 40.211692740321496 19.544656581654067 103.49878599105782 H 0.0 **** 0.06
15288 H 38.589362892575664 19.021944751865476 102.9854064858722 H 0.0 **** 0.06
15289 H 39.34020832734808 20.455128878126118 102.2410242857072 H 0.0 **** 0.06
15290 H 38.7847567235207 20.517690048702406 103.93186551329416 H 0.0 **** 0.06
15291 C 79.8476232299505 24.44393497831919 20.87043274906216 C 0.0 **** -0.24
15292 H 78.80489270637437 24.55241659330966 20.573302326612236 H 0.0 **** 0.06
15293 H 79.94683310506747 23.593127214863614 21.54495725724064 H 0.0 **** 0.06
15294 H 80.17699559019633 25.351035889367836 21.377479623583838 H 0.0 **** 0.06
15295 H 80.46222394767847 24.27989978570872 19.984189416791764 H 0.0 **** 0.06
15296 C 83.66127188057973 30.287690671919364 99.43277345026254 C 0.0 **** -0.24
15297 H 83.41085072830876 29.296733328223354 99.81202738008696 H 0.0 **** 0.06
15298 H 82.74434417454586 30.82809564686545 99.19737000490613 H 0.0 **** 0.06
15299 H 84.26737481269436 30.188825519147173 98.53233708943847 H 0.0 **** 0.06
15300 H 84.22241275255678 30.834016715111332 100.19001676720376 H 0.0 **** 0.06
15301 C 60.28642321572113 71.96872379289374 66.62369077995432 C 0.0 **** -0.24
15302 H 60.25709717571067 73.05791564782425 66.60037125539685 H 0.0 **** 0.06
15303 H 59.49071100202775 71.59884616245654 67.27204134488291 H 0.0 **** 0.06
15304 H 61.251280930013365 71.63945625625968 67.00740048372523 H 0.0 **** 0.06
15305 H 60.14347288286183 71.57947109062854 65.61570354676205 H 0.0 **** 0.06
15306 C 6.143257715613174 12.410539895044678 66.26010704236892 C 0.0 **** -0.24
15307 H 7.165552126433425 12.078836294751028 66.0779763197997 H 0.0 **** 0.06
15308 H 5.50664419833322 11.543943924832561 66.43862423308788 H 0.0 **** 0.06
15309 H 5.778433519367397 12.957670068619066 65.3915118831545 H 0.0 **** 0.06
15310 H 6.123541920349979 13.061810325625103 67.13423625058931 H 0.0 **** 0.06
15311 C 92.86521068922605 36.5102024526758 12.187369297601407 C 0.0 **** -0.24
15312 H 93.92244297459467 36.53371751939966 12.451817164656944 H 0.0 **** 0.06
15313 H 92.40449075665339 37.463662409288204 12.447471261955968 H 0.0 **** 0.06
15314 H 92.3714914916707 35.7066344939074 12.733226960474752 H 0.0 **** 0.06
15315 H 92.76280131893785 36.337233075080206 11.116148667719017 H 0.0 **** 0.06
15316 C 62.49831140257916 27.83618819495277 26.565028878957975 C 0.0 **** -0.24
15317 H 62.96850760057083 28.728111015304307 26.979877020141657 H 0.0 **** 0.06
15318 H 63.12072895041928 27.43654527829142 25.763864282047933 H 0.0 **** 0.06
15319 H 61.51619066268245 28.095275596689135 26.16855272401716 H 0.0 **** 0.06
15320 H 62.38696130922253 27.085924548796328 27.347603687141316 H 0.0 **** 0.06
15321 C 37.05580840964873 97.08024414740368 73.47348641183288 C 0.0 **** -0.24
15322 H 36.471097846950116 96.99678883857234 72.55698079927765 H 0.0 **** 0.06
15323 H 37.55121837820713 98.05074015756122 73.50082111504821 H 0.0 **** 0.06
15324 H 37.804939779277824 96.2889942371728 73.498576098711 H 0.0 **** 0.06
15325 H 36.39603214029872 96.98354535592307 74.33552488718146 H 0.0 **** 0.06
15326 C 31.995715567551244 33.72972894681899 105.89894468427288 C 0.0 **** -0.24
15327 H 31.815514786766954 33.67663131080717 106.9724697345633 H 0.0 **** 0.06
15328 H 31.277473680430887 33.09579830641525 105.37825830621387 H 0.0 **** 0.06
15329 H 33.007838036276134 33.385232502742745 105.68388631707094 H 0.0 **** 0.06
15330 H 31.88380777252693 34.76018431101708 105.5624746365626 H 0.0 **** 0.06
15331 C 26.767024176904528 100.55535777542006 47.48112164342584 C 0.0 **** -0.24
15332 H 26.60950312779302 101.6217279945169 47.642940705243056 H 0.0 **** 0.06
15333 H 26.828907692139794 100.04687647177326 48.44306857916338 H 0.0 **** 0.06
15334 H 27.695318217706614 100.40594403940577 46.92982913049533 H 0.0 **** 0.06
15335 H 25.934490489215996 100.14750363715673 46.90703590133781 H 0.0 **** 0.06
15336 C 78.50216312041027 87.4747355689137 64.02218663446399 C 0.0 **** -0.24
15337 H 78.48401981957134 88.42876685095122 64.54881634526794 H 0.0 **** 0.06
15338 H 78.79960470007687 86.68464226616341 64.71236114829685 H 0.0 **** 0.06
15339 H 79.21600152331959 87.52772293276834 63.20008699845215 H 0.0 **** 0.06
15340 H 77.50902643867316 87.25781022577206 63.627482045838974 H 0.0 **** 0.06
15341 C 27.100921949591537 13.96295561518626 4.077788661532605 C 0.0 **** -0.24
15342 H 27.034590582824364 12.883223757086938 3.9408469221884026 H 0.0 **** 0.06
15343 H 26.14423451783452 14.343423550921756 4.436072143171543 H 0.0 **** 0.06
15344 H 27.346782799635918 14.435490063451795 3.1267648061878823 H 0.0 **** 0.06
15345 H 27.877826227667697 14.189316778819133 4.808365229167899 H 0.0 **** 0.06
15346 C 110.82985607980895 24.607241012840205 30.94117025439622 C 0.0 **** -0.24
15347 H 109.87414384571488 25.131220100076916 30.935359312109718 H 0.0 **** 0.06
15348 H 111.2826408260734 24.688296137288575 31.929336621883323 H 0.0 **** 0.06
15349 H 111.49273605559658 25.053272804252714 30.199416566728644 H 0.0 **** 0.06
15350 H 110.66962491030093 23.55637127272408 30.69835852391696 H 0.0 **** 0.06
15351 C 30.069928170327984 80.51528407254307 97.10170665472515 C 0.0 **** -0.24
15352 H 29.996187842436086 79.49941996872667 97.48986025487443 H 0.0 **** 0.06
15353 H 29.16243642621305 80.75930045238829 96.54829131754832 H 0.0 **** 0.06
15354 H 30.93145799938401 80.58917770056371 96.43890067857114 H 0.0 **** 0.06
15355 H 30.188237149916915 81.21248439822494 97.93135262611554 H 0.0 **** 0.06
15356 C 37.756315409781585 77.92090146718397 19.157354718005195 C 0.0 **** -0.24
15357 H 37.36462629404453 77.70513233647782 18.16273513843764 H 0.0 **** 0.06
15358 H 37.394115364956015 78.89525810617627 19.485633579092394 H 0.0 **** 0.06
15359 H 38.84585659318843 77.92978180385873 19.124386714262485 H 0.0 **** 0.06
15360 H 37.419117790891484 77.15394107128071 19.853951590104657 H 0.0 **** 0.06
15361 C 40.754697210993506 85.58326606035232 86.40636027275781 C 0.0 **** -0.24
15362 H 40.00002023324156 84.92841073139584 86.84292519619115 H 0.0 **** 0.06
15363 H 40.74347712854223 85.4758826059512 85.32098212864848 H 0.0 **** 0.06
15364 H 41.73805822511651 85.30896807081243 86.78880174617963 H 0.0 **** 0.06
15365 H 40.53629468280727 86.61695336764723 86.67274077355549 H 0.0 **** 0.06
15366 C 108.16222500136804 21.24964727689769 31.162801485550233 C 0.0 **** -0.24
15367 H 107.17239396711473 21.585088028632384 30.85398319759655 H 0.0 **** 0.06
15368 H 108.74466288033035 20.97722571952633 30.281812598710232 H 0.0 **** 0.06
15369 H 108.06429290442759 20.383422828139146 31.81721591473962 H 0.0 **** 0.06
15370 H 108.66697812083657 22.054089088103723 31.698573298312425 H 0.0 **** 0.06
15371 C 59.7765930771468 94.03682626384337 109.32441008074886 C 0.0 **** -0.24
15372 H 58.845253525073986 93.54296109080117 109.04892956366896 H 0.0 **** 0.06
15373 H 60.379198328199436 94.2006889805872 108.4314058142553 H 0.0 **** 0.06
15374 H 60.327375389926715 93.40830434020812 110.02511888770167 H 0.0 **** 0.06
15375 H 59.55412452403726 94.99479808051296 109.79431163263257 H 0.0 **** 0.06
15376 C 5.538214947321492 73.46837865043787 66.53384780098082 C 0.0 **** -0.24
15377 H 5.54438874566975 72.95823691942253 67.49758483928744 H 0.0 **** 0.06
15378 H 5.895333292984446 74.49100217432981 66.66146998411531 H 0.0 **** 0.06
15379 H 4.522980096779563 73.48437537013366 66.13896683921885 H 0.0 **** 0.06
15380 H 6.191636950795214 72.93959276462488 65.83929762426372 H 0.0 **** 0.06
15381 C 92.3123002123409 39.09034966616568 64.40826187971848 C 0.0 **** -0.24
15382 H 92.69695344821712 39.681977196061766 65.23816754695511 H 0.0 **** 0.06
15383 H 91.7555120877216 38.23714139718841 64.79682642894338 H 0.0 **** 0.06
15384 H 93.1438763923298 38.73409710341244 63.79918473689179 H 0.0 **** 0.06
15385 H 91.65237764707354 39.706611127340125 63.79735290910736 H 0.0 **** 0.06
15386 C 53.05567598732116 29.498235725287827 1.714005920940906 C 0.0 **** -0.24
15387 H 52.51385488275679 29.442816038974428 2.65846518849159 H 0.0 **** 0.06
15388 H 53.95028104752477 30.10850770969455 1.8439893840386503 H 0.0 **** 0.06
15389 H 52.41646864888986 29.94814104929415 0.9541369027846827 H 0.0 **** 0.06
15390 H 53.342575702202794 28.494819828210154 1.4011564860054193 H 0.0 **** 0.06
15391 C 28.440682256549735 53.57373835057672 33.233429819823925 C 0.0 **** -0.24
15392 H 28.194467742506276 53.897209492763636 34.24497348363428 H 0.0 **** 0.06
15393 H 29.281800775997965 54.157442084494846 32.8609539682306 H 0.0 **** 0.06
15394 H 27.57743103351217 53.721831472801 32.58427074306343 H 0.0 **** 0.06
15395 H 28.70758502332683 52.517225845878215 33.24583737841601 H 0.0 **** 0.06
15396 C 104.44255323552512 100.66061769286256 105.76879785019992 C 0.0 **** -0.24
15397 H 104.82482044750121 101.1838190420259 104.89135899629636 H 0.0 **** 0.06
15398 H 105.27838084158931 100.29775495059505 106.36739922010241 H 0.0 **** 0.06
15399 H 103.82913229360537 99.81802375381014 105.4514685644228 H 0.0 **** 0.06
15400 H 103.83915502998408 101.3455367771275 106.36549144231623 H 0.0 **** 0.06
15401 C 23.601575787016486 4.635789208261542 65.58822390555838 C 0.0 **** -0.24
15402 H 23.222327422161186 5.627183783196699 65.83491638322238 H 0.0 **** 0.06
15403 H 23.971092522078493 4.152560349412795 66.49279617706947 H 0.0 **** 0.06
15404 H 24.413807524800063 4.726418441556973 64.8663993276005 H 0.0 **** 0.06
15405 H 22.799704138827735 4.036975253583762 65.15800609216546 H 0.0 **** 0.06
15406 C 78.84041472601461 12.22568669874974 32.18325014280913 C 0.0 **** -0.24
15407 H 78.67145814310874 13.275954710246538 31.945728554228424 H 0.0 **** 0.06
15408 H 79.905481232218 12.056112288281923 32.340369758676445 H 0.0 **** 0.06
15409 H 78.4908464510932 11.606621937515968 31.357248596197934 H 0.0 **** 0.06
15410 H 78.29302267354234 11.966121779757685 33.08978517327458 H 0.0 **** 0.06
15411 C 7.803114697652603 80.87862903248376 23.215464349851686 C 0.0 **** -0.24
15412 H 8.223176547316939 81.77006348052167 23.682014918375273 H 0.0 **** 0.06
15413 H 8.524835192834885 80.06446340927506 23.27242521980068 H 0.0 **** 0.06
15414 H 7.574741881489473 81.0904054088924 22.170561774810352 H 0.0 **** 0.06
15415 H 6.889596892606846 80.5925806118058 23.73676584825202 H 0.0 **** 0.06
15416 C 76.86042302183898 0.6984902919140836 98.57300919219915 C 0.0 **** -0.24
15417 H 76.48327114053745 1.2898901940945677 99.40729951496394 H 0.0 **** 0.06
15418 H 77.93986626018807 0.5824965884512494 98.6689647835816 H 0.0 **** 0.06
15419 H 76.63011455106124 1.204910347882759 97.63508034476212 H 0.0 **** 0.06
15420 H 76.38610621575543 -0.2833520283753188 98.58143567230253 H 0.0 **** 0.06
15421 C 24.294795689486648 61.70648773040563 24.204796691678496 C 0.0 **** -0.24
15422 H 24.17504993099186 60.86786394487484 23.518201557213615 H 0.0 **** 0.06
15423 H 25.22127671566537 62.2340426950779 23.97490221355315 H 0.0 **** 0.06
15424 H 24.33309619509717 61.335039200201095 25.22803601357174 H 0.0 **** 0.06
15425 H 23.45104390232433 62.387874313764314 24.09660719232167 H 0.0 **** 0.06
15426 C 88.94763621239872 102.71681579620267 15.249244174474622 C 0.0 **** -0.24
15427 H 88.35545309801317 101.9028484374908 15.666695966857372 H 0.0 **** 0.06
15428 H 88.51498295475443 103.03091967268357 14.298697116233082 H 0.0 **** 0.06
15429 H 89.97051859661603 102.37672626292942 15.089046032865319 H 0.0 **** 0.06
15430 H 88.94921725433746 103.55762292546744 15.94290014412621 H 0.0 **** 0.06
15431 C 45.68468605571735 35.855855969042096 30.270390439161474 C 0.0 **** -0.24
15432 H 45.15059749835672 36.6071567094298 30.853335903059985 H 0.0 **** 0.06
15433 H 46.74719573728095 36.0990608609375 30.25138239535346 H 0.0 **** 0.06
15434 H 45.295359140251264 35.84165862469541 29.25284846305283 H 0.0 **** 0.06
15435 H 45.54433834420428 34.87568712941379 30.726526731180684 H 0.0 **** 0.06
15436 C 80.05268950725439 8.89783500702211 11.42682330319414 C 0.0 **** -0.24
15437 H 79.64969522563587 8.783913348935826 10.419806289869626 H 0.0 **** 0.06
15438 H 79.36604196825112 9.494054996881388 12.027361884703808 H 0.0 **** 0.06
15439 H 81.01993383116486 9.39856080179193 11.375123484542243 H 0.0 **** 0.06
15440 H 80.17580799995412 7.914772992184254 11.88146893666115 H 0.0 **** 0.06
15441 C 31.929182716786883 39.680574238763825 102.28956466215462 C 0.0 **** -0.24
15442 H 32.49156803771129 40.58768963086942 102.51274662915286 H 0.0 **** 0.06
15443 H 31.65655194847217 39.183605872999124 103.22077014795711 H 0.0 **** 0.06
15444 H 32.545101043941884 39.01275248683572 101.6871466502539 H 0.0 **** 0.06
15445 H 31.02663692352553 39.93979315650671 101.7366800960207 H 0.0 **** 0.06
15446 C 10.625325354898266 50.50012441913107 36.821478894437504 C 0.0 **** -0.24
15447 H 11.62869955730028 50.07796153415554 36.789162708533595 H 0.0 **** 0.06
15448 H 10.387927113424325 50.9489167295986 35.85698407082131 H 0.0 **** 0.06
15449 H 10.576783040214082 51.26297802454052 37.599303304589924 H 0.0 **** 0.06
15450 H 9.906167240534913 49.710996160856354 37.04216862261799 H 0.0 **** 0.06
15451 C 2.649031169540706 11.712331243158562 80.56144439489651 C 0.0 **** -0.24
15452 H 3.0732835361970956 12.707704166345344 80.43104352134367 H 0.0 **** 0.06
15453 H 2.5368717028851506 11.502715648068254 81.62534255870804 H 0.0 **** 0.06
15454 H 3.312397486878183 10.972167991945664 80.11373440579962 H 0.0 **** 0.06
15455 H 1.6735783144905554 11.667040990614641 80.07703830727621 H 0.0 **** 0.06
15456 C 54.53997793620101 23.62703286690612 23.369405650475297 C 0.0 **** -0.24
15457 H 54.871243421049144 23.46415897976263 24.394636829319836 H 0.0 **** 0.06
15458 H 55.05367939498649 24.49600335437404 22.95616731911251 H 0.0 **** 0.06
15459 H 53.46355298282117 23.80210631212327 23.359536127365455 H 0.0 **** 0.06
15460 H 54.77091683334612 22.747616143914257 22.76856942886917 H 0.0 **** 0.06
15461 C 86.70326435102736 87.68458533919136 54.491261987406446 C 0.0 **** -0.24
15462 H 85.99319985971047 86.92533889643738 54.81879516157749 H 0.0 **** 0.06
15463 H 87.20443299028412 87.34606454450329 53.58483914927778 H 0.0 **** 0.06
15464 H 87.44180614362752 87.8532037460028 55.274820263503415 H 0.0 **** 0.06
15465 H 86.17206669600013 88.61495573163688 54.28690987170074 H 0.0 **** 0.06
15466 C 47.724377813703256 60.833154593016886 93.87746745711604 C 0.0 **** -0.24
15467 H 48.2020959658756 60.07036903430951 93.2635291591618 H 0.0 **** 0.06
15468 H 47.871413342736616 61.81204353589965 93.42170688922064 H 0.0 **** 0.06
15469 H 48.16597976216369 60.82585684177168 94.87443046489858 H 0.0 **** 0.06
15470 H 46.65698120529822 60.62288905348896 93.95153946164879 H 0.0 **** 0.06
15471 C 89.37412642894662 70.98704777810042 10.003355902194826 C 0.0 **** -0.24
15472 H 88.70744042222603 70.61833475903939 9.224118976714976 H 0.0 **** 0.06
15473 H 90.09621990127661 70.21195365963729 10.259948678528701 H 0.0 **** 0.06
15474 H 88.79053618207743 71.24820016367511 10.886235052845862 H 0.0 **** 0.06
15475 H 89.90144494229011 71.87064802859436 9.641955042935123 H 0.0 **** 0.06
15476 C 98.70112628329449 21.726542871512095 2.057656063523467 C 0.0 **** -0.24
15477 H 97.99008399246084 21.490455827815993 2.8495799981857317 H 0.0 **** 0.06
15478 H 99.15590193949159 22.69734607244976 2.255476676610286 H 0.0 **** 0.06
15479 H 98.18170103475028 21.75592607967272 1.100575242483842 H 0.0 **** 0.06
15480 H 99.47697199092059 20.96151023074023 2.02644336608887 H 0.0 **** 0.06
15481 C 43.65531253844705 79.82211465265809 13.9054551678889 C 0.0 **** -0.24
15482 H 44.65952651174962 79.92815007065856 13.495638752381307 H 0.0 **** 0.06
15483 H 42.95829112950253 79.5808662338881 13.102338031558237 H 0.0 **** 0.06
15484 H 43.35466235728387 80.75796847816042 14.377653084026125 H 0.0 **** 0.06
15485 H 43.64766043079078 79.02280349832229 14.64616552339945 H 0.0 **** 0.06
15486 C 28.43674368402648 0.08465714215290632 67.1797631889691 C 0.0 **** -0.24
15487 H 27.63627674553382 -0.646064414655811 67.29638406444013 H 0.0 **** 0.06
15488 H 28.739520206726695 0.1271347732695176 66.1338015594921 H 0.0 **** 0.06
15489 H 29.28817322702423 -0.20832935272171937 67.79453095780252 H 0.0 **** 0.06
15490 H 28.081358812247004 1.065314173680619 67.49605752578236 H 0.0 **** 0.06
15491 C 14.721986631713492 14.506921439952905 13.627661967422142 C 0.0 **** -0.24
15492 H 13.862981557050844 13.961601102139099 14.018052439699758 H 0.0 **** 0.06
15493 H 14.627419935567133 15.562792862059808 13.881351570914575 H 0.0 **** 0.06
15494 H 14.761686487472844 14.39623043132525 12.543919763266246 H 0.0 **** 0.06
15495 H 15.63629877563983 14.107890013796847 14.067669911949267 H 0.0 **** 0.06
15496 C 31.087081342382135 50.04454081728683 47.38917485420167 C 0.0 **** -0.24
15497 H 31.410572768435287 49.03603962670168 47.643712273085754 H 0.0 **** 0.06
15498 H 31.75420459451402 50.46048781109573 46.63330749688154 H 0.0 **** 0.06
15499 H 31.11357597346617 50.670414614112815 48.28149866587058 H 0.0 **** 0.06
15500 H 30.070219927534282 50.01251647826973 46.998691811438476 H 0.0 **** 0.06
15501 C 102.73083610739103 49.01498953456593 46.608221651998065 C 0.0 **** -0.24
15502 H 102.48792916877193 49.314323508693576 45.58850593715954 H 0.0 **** 0.06
15503 H 103.68632877463425 48.490141352334945 46.614296077929225 H 0.0 **** 0.06
15504 H 101.95015750205211 48.35664902100956 46.9888085616717 H 0.0 **** 0.06
15505 H 102.79894918271951 49.901525401287245 47.23993010936459 H 0.0 **** 0.06
15506 C 20.766080876201794 63.45564466207942 4.837253973499685 C 0.0 **** -0.24
15507 H 21.71817209521144 63.26992156980252 5.33528110195175 H 0.0 **** 0.06
15508 H 19.948075468565772 63.19069718284898 5.506496585357695 H 0.0 **** 0.06
15509 H 20.70673955779746 62.851885755605466 3.9319830221385246 H 0.0 **** 0.06
15510 H 20.694977847291412 64.51192317750693 4.574688038408766 H 0.0 **** 0.06
15511 C 47.16777158201023 94.2774271111771 88.25079314329179 C 0.0 **** -0.24
15512 H 47.083401922674824 94.69980908404482 89.2520103795772 H 0.0 **** 0.06
15513 H 47.99669609598948 94.75171378972294 87.72466856955884 H 0.0 **** 0.06
15514 H 46.24166632201255 94.45269236756282 87.7026673313606 H 0.0 **** 0.06
15515 H 47.349325354945506 93.20496747922414 88.32297561467558 H 0.0 **** 0.06
15516 C 22.373933235038976 35.48316863465752 77.20002237735173 C 0.0 **** -0.24
15517 H 21.719447520036155 35.90965314485348 76.4390077864141 H 0.0 **** 0.06
15518 H 22.358504730767816 34.395321744160874 77.12308792769653 H 0.0 **** 0.06
15519 H 22.024182228210773 35.783298597558364 78.18765082765884 H 0.0 **** 0.06
15520 H 23.390366451171843 35.844801496131865 77.04850056160592 H 0.0 **** 0.06
15521 C 98.02845822190397 108.97008224714794 85.8761601792782 C 0.0 **** -0.24
15522 H 97.11249901888006 108.38796735894029 85.98057166904192 H 0.0 **** 0.06
15523 H 97.80340709621159 110.02739407117492 86.0108908710518 H 0.0 **** 0.06
15524 H 98.44764820680174 108.81076573373221 84.88282653825962 H 0.0 **** 0.06
15525 H 98.74799513940035 108.65190144383251 86.629648243465 H 0.0 **** 0.06
15526 C 105.67941794727321 1.657965148849911 44.725043662169355 C 0.0 **** -0.24
15527 H 105.80606495574312 0.6097357994378569 44.45364079330665 H 0.0 **** 0.06
15528 H 105.89563145333003 2.284959767932122 43.86019096600518 H 0.0 **** 0.06
15529 H 106.36387637046735 1.908233038183198 45.535950199104406 H 0.0 **** 0.06
15530 H 104.6525276821768 1.826765092778345 45.05004477035021 H 0.0 **** 0.06
15531 C 49.28697518520727 103.38048407293965 33.43346603754969 C 0.0 **** -0.24
15532 H 48.84493197455646 102.4037113937327 33.23383205469344 H 0.0 **** 0.06
15533 H 48.49433894475894 104.12241402331472 33.54144096933635 H 0.0 **** 0.06
15534 H 49.93718196698549 103.66161465156776 32.60475831255741 H 0.0 **** 0.06
15535 H 49.869079572032746 103.33454038456442 34.35331023098445 H 0.0 **** 0.06
15536 C 18.36775759693876 99.66509987853124 92.41982883394292 C 0.0 **** -0.24
15537 H 18.48567980955471 98.93062135510162 91.62288253616397 H 0.0 **** 0.06
15538 H 18.413591108133744 100.66879742803101 91.99711822992442 H 0.0 **** 0.06
15539 H 19.16802730408608 99.54130818020134 93.14947377828304 H 0.0 **** 0.06
15540 H 17.405084389601427 99.51985405043614 92.90806912536368 H 0.0 **** 0.06
15541 C 20.8649665520079 58.23709762005748 97.398815811898 C 0.0 **** -0.24
15542 H 20.41832543454916 58.08247303007053 96.4163781781554 H 0.0 **** 0.06
15543 H 21.40431383494837 59.18499045812524 97.4080069490346 H 0.0 **** 0.06
15544 H 21.555566128224513 57.422899379162715 97.61605790784917 H 0.0 **** 0.06
15545 H 20.07932706518733 58.258107620789474 98.15556016802567 H 0.0 **** 0.06
15546 C 92.61682237137956 90.38181714186501 55.93372001393406 C 0.0 **** -0.24
15547 H 92.77322529920053 89.62079544837383 56.69832634717879 H 0.0 **** 0.06
15548 H 93.4920813680686 91.03043453914148 55.88282840055243 H 0.0 **** 0.06
15549 H 91.73806166311726 90.97595691812464 56.187162993125796 H 0.0 **** 0.06
15550 H 92.46399711563035 89.90106402706687 54.967576853729824 H 0.0 **** 0.06
15551 C 101.36856248338246 75.40633449799697 82.32055325566026 C 0.0 **** -0.24
15552 H 100.46562906049701 75.15602489389101 81.76452536261118 H 0.0 **** 0.06
15553 H 101.43322288554003 74.77811998168261 83.21015788282338 H 0.0 **** 0.06
15554 H 101.33359053912108 76.45434051521869 82.61723668210355 H 0.0 **** 0.06
15555 H 102.2415556389771 75.23572905494359 81.69111427498792 H 0.0 **** 0.06
15556 C 34.591886926829076 77.7662732897611 95.40827356131896 C 0.0 **** -0.24
15557 H 35.05996451002666 78.6576386459386 94.99208989259972 H 0.0 **** 0.06
15558 H 33.67629287672136 78.04591816101818 95.92984046542148 H 0.0 **** 0.06
15559 H 35.27772107450183 77.28758721349566 96.10808564433682 H 0.0 **** 0.06
15560 H 34.35226967056946 77.07206249085722 94.60221108346468 H 0.0 **** 0.06
15561 C 85.99895804766095 54.0235143935833 108.01808985407384 C 0.0 **** -0.24
15562 H 86.90135867774075 54.32161595858855 107.4842497138734 H 0.0 **** 0.06
15563 H 86.03254032274504 54.413837636498045 109.03553408217425 H 0.0 **** 0.06
15564 H 85.93850003062266 52.93531236494681 108.04879716560596 H 0.0 **** 0.06
15565 H 85.1245205464923 54.42273389381876 107.50449023973982 H 0.0 **** 0.06
15566 C 79.9526402031342 36.721143232965744 11.164949688340613 C 0.0 **** -0.24
15567 H 80.8554539179058 37.32842582404845 11.229579245937487 H 0.0 **** 0.06
15568 H 80.11100612249993 35.91058753998561 10.453349060387723 H 0.0 **** 0.06
15569 H 79.12182448042464 37.342229318812485 10.829936185034512 H 0.0 **** 0.06
15570 H 79.72288277463124 36.30462894255459 12.145539351731514 H 0.0 **** 0.06
15571 C 64.91982302081985 53.60186898976764 55.041724713635006 C 0.0 **** -0.24
15572 H 65.20486495495734 52.55414563852375 55.13817996535943 H 0.0 **** 0.06
15573 H 63.85624832631953 53.66967147259382 54.812568796644484 H 0.0 **** 0.06
15574 H 65.49565276764793 54.06245933568994 54.23946395200801 H 0.0 **** 0.06
15575 H 65.12370002225094 54.120723130182284 55.97940556418581 H 0.0 **** 0.06
15576 C 67.93616895436784 101.56602927045327 101.1439435555007 C 0.0 **** -0.24
15577 H 67.60580111733485 100.77206320422835 101.81257471975573 H 0.0 **** 0.06
15578 H 68.03798405033518 102.49494908781588 101.70543301431275 H 0.0 **** 0.06
15579 H 67.20364322970836 101.70027768696724 100.34813381160939 H 0.0 **** 0.06
15580 H 68.89886911672842 101.29740726926195 100.70944921588335 H 0.0 **** 0.06
15581 C 97.30629432107989 100.74630798556356 44.63541184362243 C 0.0 **** -0.24
15582 H 97.91065025129478 100.57453538351886 43.744646543317444 H 0.0 **** 0.06
15583 H 97.63737036168203 101.65915506280524 45.129112691555996 H 0.0 **** 0.06
15584 H 97.4173181295821 99.90305021635821 45.31633454722266 H 0.0 **** 0.06
15585 H 96.2586624339115 100.84587664466109 44.34914918841409 H 0.0 **** 0.06
15586 C 14.406363640979237 47.176261285017404 100.85349020794493 C 0.0 **** -0.24
15587 H 15.463828527419537 47.04402779433326 101.08118962084387 H 0.0 **** 0.06
15588 H 13.816027446396504 46.488707673112685 101.4577003114 H 0.0 **** 0.06
15589 H 14.234671826973283 46.97249801751855 99.79682462446476 H 0.0 **** 0.06
15590 H 14.113305845653656 48.20232802411516 101.07815431490968 H 0.0 **** 0.06
15591 C 14.177979499148591 103.26183436583278 110.08499200660022 C 0.0 **** -0.24
15592 H 15.040738870907091 103.91629576172224 109.96387949169582 H 0.0 **** 0.06
15593 H 14.043381171646857 102.66627035371371 109.18172706232139 H 0.0 **** 0.06
15594 H 13.286696519659642 103.86450707714174 110.2589143241468 H 0.0 **** 0.06
15595 H 14.341247342025952 102.59940235845853 110.9359328111164 H 0.0 **** 0.06
15596 C 1.8805611316604427 101.0197223979239 58.40252194131165 C 0.0 **** -0.24
15597 H 2.2092283762540745 101.72711226525763 57.640881494226676 H 0.0 **** 0.06
15598 H 0.9756937778892762 101.39581551338951 58.8811009118042 H 0.0 **** 0.06
15599 H 2.66425139033322 100.8995422614769 59.15008866959403 H 0.0 **** 0.06
15600 H 1.671624783187255 100.05600300247767 57.93608399796659 H 0.0 **** 0.06
15601 C 56.03561456774054 60.775610878481984 57.55505915329252 C 0.0 **** -0.24
15602 H 56.592795018863 59.942049664722845 57.9836141922068 H 0.0 **** 0.06
15603 H 56.109114972111 61.639278118530285 58.217311681614774 H 0.0 **** 0.06
15604 H 54.98925155246286 60.49209954540919 57.44097363944559 H 0.0 **** 0.06
15605 H 56.451560621097826 61.028690145141866 56.5807504709241 H 0.0 **** 0.06
15606 C 90.78656771662162 79.946661987706 43.878696844087045 C 0.0 **** -0.24
15607 H 91.15970340993874 79.75431635979973 44.88538732458382 H 0.0 **** 0.06
15608 H 91.26012856180239 80.8448133160847 43.481632524580846 H 0.0 **** 0.06
15609 H 89.70653567032336 80.0900150563574 43.91429765478925 H 0.0 **** 0.06
15610 H 91.02027573455169 79.09725426375087 43.2367561789454 H 0.0 **** 0.06
15611 C 28.078455741296047 47.38363790236713 93.68342094201317 C 0.0 **** -0.24
15612 H 27.86027754912159 47.63313267443061 92.6442787738998 H 0.0 **** 0.06
15613 H 29.108336790123573 47.658433817779155 93.9138922446994 H 0.0 **** 0.06
15614 H 27.94455873426397 46.31323081408084 93.83503861086062 H 0.0 **** 0.06
15615 H 27.400412968672242 47.931665268089375 94.33796563637603 H 0.0 **** 0.06
15616 C 88.14843643614387 53.38134595845807 10.040190140035682 C 0.0 **** -0.24
15617 H 87.9937435488527 54.34049854706004 9.545320269020825 H 0.0 **** 0.06
15618 H 88.95486940093525 53.475302707081624 10.768444769662555 H 0.0 **** 0.06
15619 H 88.41384172200162 52.628261501436924 9.298934102602535 H 0.0 **** 0.06
15620 H 87.23289917264603 53.083572070694586 10.549593590728316 H 0.0 **** 0.06
15621 C 89.8876235438363 100.50897202747468 17.50072825710589 C 0.0 **** -0.24
15622 H 88.79934414401828 100.44493098956019 17.537708137653 H 0.0 **** 0.06
15623 H 90.18659944526502 101.5535375403549 17.40947548694237 H 0.0 **** 0.06
15624 H 90.25461130579828 99.94929703402215 16.640373320306608 H 0.0 **** 0.06
15625 H 90.30697302779816 100.08849469985482 18.413919629261073 H 0.0 **** 0.06
15626 C 54.185564587004876 65.89289375123735 95.22202593261687 C 0.0 **** -0.24
15627 H 54.5996542328873 64.94193420756223 95.55956781892584 H 0.0 **** 0.06
15628 H 53.59520241041881 66.33663227313691 96.02406669623218 H 0.0 **** 0.06
15629 H 53.54892685065457 65.72380053570393 94.3535481773028 H 0.0 **** 0.06
15630 H 54.99803749674163 66.5672188592861 94.95184425778041 H 0.0 **** 0.06
15631 C 35.75137474982242 58.01157981035378 60.01439814461206 C 0.0 **** -0.24
15632 H 34.771589916024084 58.08516246072235 60.48643628962755 H 0.0 **** 0.06
15633 H 36.35644705316807 57.276580458980604 60.54504791998312 H 0.0 **** 0.06
15634 H 36.24554175549946 58.98302321789964 60.04992928132545 H 0.0 **** 0.06
15635 H 35.630072803149005 57.7030815402681 58.97567805566442 H 0.0 **** 0.06
15636 C 110.18103422761266 86.87769936937633 97.91627708098066 C 0.0 **** -0.24
15637 H 109.93604614733721 87.90457573208226 97.64844240461315 H 0.0 **** 0.06
15638 H 110.18472102008083 86.77623841049407 99.00186026442306 H 0.0 **** 0.06
15639 H 111.16617921946768 86.6259563125478 97.52424075133555 H 0.0 **** 0.06
15640 H 109.43710821812928 86.20323518699429 97.49117010832013 H 0.0 **** 0.06
15641 C 67.43186753598168 90.43002511552322 48.8740396581467 C 0.0 **** -0.24
15642 H 67.37997937797324 91.50029928287643 48.67355132625167 H 0.0 **** 0.06
15643 H 66.51032488808409 89.95322670367062 48.54083832393957 H 0.0 **** 0.06
15644 H 67.56074589922383 90.26596194991043 49.94367854786526 H 0.0 **** 0.06
15645 H 68.27764742814468 90.00140035113992 48.33612244053458 H 0.0 **** 0.06
15646 C 86.34001574196144 25.753340576943124 36.90676031423672 C 0.0 **** -0.24
15647 H 87.31788607161741 25.720190926179598 37.386690964129 H 0.0 **** 0.06
15648 H 85.82051733029374 26.66397234875491 37.20492286146049 H 0.0 **** 0.06
15649 H 85.75544542747701 24.885438489140633 37.211865613021814 H 0.0 **** 0.06
15650 H 86.4668005699879 25.744387161743433 35.824075139056106 H 0.0 **** 0.06
15651 C 22.191654831490453 9.12739563579754 55.780313902483286 C 0.0 **** -0.24
15652 H 21.124078219074693 9.212988039635974 55.98322239073633 H 0.0 **** 0.06
15653 H 22.379070691708165 9.344026726302843 54.72740548917151 H 0.0 **** 0.06
15654 H 22.52425090901795 8.115374071913408 56.007964646682055 H 0.0 **** 0.06
15655 H 22.737377171096583 9.83833172750306 56.3996116228825 H 0.0 **** 0.06
15656 C 84.14057227441074 80.47848514771147 23.584723932908787 C 0.0 **** -0.24
15657 H 84.93513068960512 81.21852157343125 23.500008838287926 H 0.0 **** 0.06
15658 H 84.52001378697835 79.50180253205946 23.283391943350125 H 0.0 **** 0.06
15659 H 83.31041790588573 80.76053198119797 22.936713079465875 H 0.0 **** 0.06
15660 H 83.79525207344216 80.4319098660967 24.617579411143737 H 0.0 **** 0.06
15661 C 65.0661245868194 75.55544465208953 38.268696608182125 C 0.0 **** -0.24
15662 H 64.86328653189884 75.85232489544492 39.29751513376294 H 0.0 **** 0.06
15663 H 64.86805924602274 74.4894653665242 38.152580021633526 H 0.0 **** 0.06
15664 H 66.10927804199451 75.76010578675786 38.030047565225516 H 0.0 **** 0.06
15665 H 64.42106184355208 76.12002652213653 37.59438201226885 H 0.0 **** 0.06
15666 C 46.63956917622795 58.732499609065655 27.493144688994562 C 0.0 **** -0.24
15667 H 46.06416043298333 59.05578848164015 28.360210880395982 H 0.0 **** 0.06
15668 H 46.02753768543663 58.825491550564664 26.595918579237036 H 0.0 **** 0.06
15669 H 46.9390083334091 57.69202939667821 27.624078735683426 H 0.0 **** 0.06
15670 H 47.52839249067418 59.35562028157966 27.39505052390885 H 0.0 **** 0.06
15671 C 78.59579512419106 46.311243971760575 105.998655318806 C 0.0 **** -0.24
15672 H 77.74355020342733 46.70960463111012 105.44742655479628 H 0.0 **** 0.06
15673 H 79.22011707795633 47.13492140281613 106.34407143142019 H 0.0 **** 0.06
15674 H 79.17802831605547 45.66153087083819 105.34653489883044 H 0.0 **** 0.06
15675 H 78.23839891614512 45.74099883623166 106.85619900703854 H 0.0 **** 0.06
15676 C 63.29113383574787 22.454484427633872 8.584289791619682 C 0.0 **** -0.24
15677 H 63.38805724279479 22.384207233215136 7.500191652025279 H 0.0 **** 0.06
15678 H 63.46600767151767 21.474634699703614 9.02886981349252 H 0.0 **** 0.06
15679 H 62.28696012844142 22.794896369903853 8.838094115882797 H 0.0 **** 0.06
15680 H 64.02357747910719 23.164783027127783 8.968091759644693 H 0.0 **** 0.06
15681 C 25.72335002115358 36.22629390438824 0.03520435933871191 C 0.0 **** -0.24
15682 H 24.86751421770191 35.582473136157894 -0.1662046739994496 H 0.0 **** 0.06
15683 H 25.746987723984233 37.037831852857316 -0.6924941901372641 H 0.0 **** 0.06
15684 H 26.642016703964657 35.64391870252363 -0.03922956735205485 H 0.0 **** 0.06
15685 H 25.63661710845119 36.640302429219986 1.0399740316380566 H 0.0 **** 0.06
15686 C 38.61307967402092 104.3080958934458 26.624327933151434 C 0.0 **** -0.24
15687 H 37.76067080386102 103.62775915858089 26.61726763917278 H 0.0 **** 0.06
15688 H 38.3667220996777 105.19117258176925 27.215199592208442 H 0.0 **** 0.06
15689 H 38.84792294300132 104.60759072714973 25.60370795710582 H 0.0 **** 0.06
15690 H 39.47422975247727 103.80587427495655 27.063648607639394 H 0.0 **** 0.06
15691 C 65.26055234517628 63.71120579006924 80.95958296030282 C 0.0 **** -0.24
15692 H 65.50862983708538 62.651070269903414 81.00634773606049 H 0.0 **** 0.06
15693 H 66.12000780099413 64.26943691322026 80.58778989262834 H 0.0 **** 0.06
15694 H 65.00009648359043 64.06794444450406 81.95686430835754 H 0.0 **** 0.06
15695 H 64.41351635636687 63.8572303839951 80.28962358832759 H 0.0 **** 0.06
15696 C 45.390274829955956 1.720293225972858 110.37383867198994 C 0.0 **** -0.24
15697 H 45.599077924233825 0.6504116234693589 110.36639782566816 H 0.0 **** 0.06
15698 H 44.32308182775705 1.8825859190290384 110.22206937921133 H 0.0 **** 0.06
15699 H 45.94972737476559 2.2050188529350034 109.5737001516479 H 0.0 **** 0.06
15700 H 45.68983962051607 2.1412696545309746 111.33421025295492 H 0.0 **** 0.06
15701 C 43.33227673394538 73.43395744685866 78.85854616095298 C 0.0 **** -0.24
15702 H 43.04066040368349 72.4926164522378 79.32700203487462 H 0.0 **** 0.06
15703 H 42.495660777482044 73.82301697799488 78.27724055279617 H 0.0 **** 0.06
15704 H 44.18499828620918 73.26318043876992 78.20131720012742 H 0.0 **** 0.06
15705 H 43.60564322345272 74.15344041188496 79.63052722883049 H 0.0 **** 0.06
15706 C 34.81575436247533 79.71684458579966 66.96168214692283 C 0.0 **** -0.24
15707 H 34.22341553395694 78.95165199878596 66.4604559263725 H 0.0 **** 0.06
15708 H 35.22768817392625 80.40002281211423 66.21931582962483 H 0.0 **** 0.06
15709 H 35.628757191693694 79.24404462324534 67.51229935176858 H 0.0 **** 0.06
15710 H 34.1811990320316 80.27076549719618 67.65404904852029 H 0.0 **** 0.06
15711 C 86.54295105680012 36.93916756630546 66.79437843414803 C 0.0 **** -0.24
15712 H 85.66378484673865 37.11061732013047 67.41584244040104 H 0.0 **** 0.06
15713 H 87.35999406456853 37.57355388378721 67.13820900518306 H 0.0 **** 0.06
15714 H 86.30689452090095 37.18085016908094 65.75763902312957 H 0.0 **** 0.06
15715 H 86.83915567857909 35.892885336098175 66.86506800410723 H 0.0 **** 0.06
15716 C 42.46641203963779 28.65152741244296 31.12642550551277 C 0.0 **** -0.24
15717 H 41.505194872320324 29.153472525114353 31.01606975779788 H 0.0 **** 0.06
15718 H 42.333791924984 27.735971502629894 31.703693261028377 H 0.0 **** 0.06
15719 H 43.162035225019366 29.311221797771168 31.645685040515673 H 0.0 **** 0.06
15720 H 42.86395163102817 28.40600121803027 30.142311778615607 H 0.0 **** 0.06
15721 C 106.81736478700918 12.701045351718392 66.52586717842968 C 0.0 **** -0.24
15722 H 107.15162218014105 13.491963433600215 65.85437233942781 H 0.0 **** 0.06
15723 H 106.14327469055947 13.118709234078057 67.27427695791039 H 0.0 **** 0.06
15724 H 107.68064126357086 12.256718679463773 67.0216869900504 H 0.0 **** 0.06
15725 H 106.29453567365954 11.934708352991734 65.95259489340026 H 0.0 **** 0.06
15726 C 22.681590097857907 80.91762388071334 38.430016789554145 C 0.0 **** -0.24
15727 H 22.671676006167218 79.9214303437742 37.98822288016294 H 0.0 **** 0.06
15728 H 21.65712694772401 81.26529815430695 38.566294554013524 H 0.0 **** 0.06
15729 H 23.213286645176993 81.60325997202366 37.7697958468616 H 0.0 **** 0.06
15730 H 23.184097223854252 80.88085391017455 39.396675622358146 H 0.0 **** 0.06
15731 C 105.55776790347727 40.01671939062109 101.59120939704837 C 0.0 **** -0.24
15732 H 104.54454635430986 40.25683007546701 101.26997949371965 H 0.0 **** 0.06
15733 H 106.08240015542901 39.501384659034926 100.78525656942284 H 0.0 **** 0.06
15734 H 105.51726742233063 39.37245651393684 102.46940116434794 H 0.0 **** 0.06
15735 H 106.08738380849849 40.9368501622414 101.83964475246269 H 0.0 **** 0.06
15736 C 55.24471496648283 74.34299591228745 42.71530096810778 C 0.0 **** -0.24
15737 H 56.14422804097828 73.85506471848268 43.09062630572754 H 0.0 **** 0.06
15738 H 54.82654860026409 74.98184977585697 43.49393465703565 H 0.0 **** 0.06
15739 H 54.51133929263841 73.58788210778289 42.43361327054993 H 0.0 **** 0.06
15740 H 55.49589345925591 74.94853128677101 41.844601251959546 H 0.0 **** 0.06
15741 C 21.72686539553906 28.842836682123718 105.20920677505984 C 0.0 **** -0.24
15742 H 21.016486600451703 29.55871812165347 104.7964726812445 H 0.0 **** 0.06
15743 H 22.203625452980692 29.271217041478273 106.09124979140807 H 0.0 **** 0.06
15744 H 22.48574648117356 28.611940827711926 104.46130346733395 H 0.0 **** 0.06
15745 H 21.201122719484665 27.928817367715823 105.48721597399663 H 0.0 **** 0.06
15746 C 109.75269811162744 75.06320075827108 29.574521485564674 C 0.0 **** -0.24
15747 H 109.45976814173197 74.69513868416402 30.558706511047717 H 0.0 **** 0.06
15748 H 110.84006293716608 75.05703225889101 29.495316395443297 H 0.0 **** 0.06
15749 H 109.38356003110114 76.07982607565555 29.442890471815872 H 0.0 **** 0.06
15750 H 109.328444618761 74.4187511808621 28.804872587824605 H 0.0 **** 0.06
15751 C 50.60574710616868 91.6362294436403 52.24065275727918 C 0.0 **** -0.24
15752 H 50.679488563627274 90.75293048343886 52.874982224066514 H 0.0 **** 0.06
15753 H 51.0369290060554 91.41857712238456 51.263826090574184 H 0.0 **** 0.06
15754 H 51.14819544861655 92.46165839549616 52.70206861349408 H 0.0 **** 0.06
15755 H 49.55752392404145 91.91217322617462 52.121422002379745 H 0.0 **** 0.06
15756 C 30.192976875002685 65.44275959889436 7.038735026069503 C 0.0 **** -0.24
15757 H 30.06317041548759 64.3744610190032 6.860866417757734 H 0.0 **** 0.06
15758 H 30.909522309394653 65.84525632238001 6.32319556077357 H 0.0 **** 0.06
15759 H 30.56279980078699 65.59949688475513 8.051287287887533 H 0.0 **** 0.06
15760 H 29.235508986817926 65.94992007962273 6.918846606734576 H 0.0 **** 0.06
15761 C 33.703476421647906 30.23521285651688 67.67326801682458 C 0.0 **** -0.24
15762 H 33.01203957085309 30.519333690579487 66.87946186492675 H 0.0 **** 0.06
15763 H 33.92069984948037 31.10500902442311 68.29370767493019 H 0.0 **** 0.06
15764 H 34.62922208793228 29.862843190178012 67.23244535456188 H 0.0 **** 0.06
15765 H 33.25290145245924 29.45459250743005 68.28540178390246 H 0.0 **** 0.06
15766 C 15.245425913607534 70.82291712919276 11.272916987763821 C 0.0 **** -0.24
15767 H 14.289908784696394 71.29321695109849 11.038671658920947 H 0.0 **** 0.06
15768 H 15.825586897536454 70.70542449902703 10.357224634598992 H 0.0 **** 0.06
15769 H 15.068302478124679 69.84478487945785 11.719935236028036 H 0.0 **** 0.06
15770 H 15.796137214302462 71.44960137144531 11.974823452370174 H 0.0 **** 0.06
15771 C 4.729282855318388 46.01611354216871 61.240022718557384 C 0.0 **** -0.24
15772 H 4.144062537585 45.881173928488664 62.14967002082898 H 0.0 **** 0.06
15773 H 5.246573216005473 45.08658369095796 61.00066793875072 H 0.0 **** 0.06
15774 H 5.460945018939029 46.8100647536873 61.393256975318025 H 0.0 **** 0.06
15775 H 4.066539547225958 46.285721968298425 60.418544010581854 H 0.0 **** 0.06
15776 C 9.05722520370162 45.63475380838537 48.426127461691436 C 0.0 **** -0.24
15777 H 8.60158679551921 45.78483109710257 49.40454258123811 H 0.0 **** 0.06
15778 H 10.009903221829973 46.16338669897769 48.38362298706826 H 0.0 **** 0.06
15779 H 8.3927628570909 46.02190139661235 47.65265972206674 H 0.0 **** 0.06
15780 H 9.223766617883058 44.57064610856415 48.262214578386875 H 0.0 **** 0.06
15781 C 22.797707769796403 7.624575272578454 15.484580248173415 C 0.0 **** -0.24
15782 H 21.931535685931237 7.357450021761736 14.879180583399716 H 0.0 **** 0.06
15783 H 22.670006047570215 7.230322873673629 16.49375870242244 H 0.0 **** 0.06
15784 H 22.88972163712266 8.709853197356097 15.527323750136816 H 0.0 **** 0.06
15785 H 23.6968788807245 7.200271577830449 15.039325990611246 H 0.0 **** 0.06
15786 C 60.13864836394379 86.3047110920026 87.20620908178921 C 0.0 **** -0.24
15787 H 60.23679952001817 85.6153458410991 86.36789433813885 H 0.0 **** 0.06
15788 H 60.962866864086266 87.01946692879812 87.1871351749852 H 0.0 **** 0.06
15789 H 60.163803664120536 85.74569933279594 88.14122927402485 H 0.0 **** 0.06
15790 H 59.192768994684116 86.83940020159721 87.12750431753526 H 0.0 **** 0.06
15791 C 1.175783531677439 33.470541295277116 37.548876344353836 C 0.0 **** -0.24
15792 H 1.4249462431739062 34.41372779000051 38.03465601575358 H 0.0 **** 0.06
15793 H 2.0585721658730165 33.07879523931848 37.043801126529736 H 0.0 **** 0.06
15794 H 0.38256427428707696 33.63510384007289 36.820143834144254 H 0.0 **** 0.06
15795 H 0.8380699721242877 32.75375936697185 38.298736365960025 H 0.0 **** 0.06
15796 C 83.68573753376671 36.801655782618184 44.384675281733536 C 0.0 **** -0.24
15797 H 82.89735497654203 36.16302902865462 44.784154427901655 H 0.0 **** 0.06
15798 H 84.40425796242295 37.02665063452778 45.17298134727784 H 0.0 **** 0.06
15799 H 83.24937816505417 37.72973452471746 44.0155017752689 H 0.0 **** 0.06
15800 H 84.19110146881908 36.287411047750155 43.56834919285467 H 0.0 **** 0.06
15801 C 106.74443450118663 45.40589553746929 45.915386022016946 C 0.0 **** -0.24
15802 H 105.92804470118105 46.092152393138434 46.14162700103043 H 0.0 **** 0.06
15803 H 107.28722986416346 45.76361894546682 45.03957898509526 H 0.0 **** 0.06
15804 H 106.34054211038752 44.41486199302386 45.71316810738597 H 0.0 **** 0.06
15805 H 107.42185045753655 45.355689344028576 46.76786634066235 H 0.0 **** 0.06
15806 C 65.31720667916929 76.84375261884242 5.560859239965737 C 0.0 **** -0.24
15807 H 64.96970822512213 76.62897189930305 4.550220428375752 H 0.0 **** 0.06
15808 H 66.38204542359406 76.62240506260486 5.632952499402904 H 0.0 **** 0.06
15809 H 64.76836527670838 76.22574793500357 6.272837579796828 H 0.0 **** 0.06
15810 H 65.14796930308142 77.89605439112279 5.787107721565405 H 0.0 **** 0.06
15811 C 38.76526934578931 5.461757785374246 90.56672808685772 C 0.0 **** -0.24
15812 H 38.06373806722192 5.955817709936568 91.23895899182057 H 0.0 **** 0.06
15813 H 38.934213810534935 6.0904866966567255 89.69261799877347 H 0.0 **** 0.06
15814 H 38.35349546196028 4.503496259226949 90.25200950470055 H 0.0 **** 0.06
15815 H 39.71038397938902 5.2981263716926605 91.08547742193052 H 0.0 **** 0.06
15816 C 42.05221814382199 80.73332011669515 63.80966017082653 C 0.0 **** -0.24
15817 H 42.095103041086986 80.8943871216901 62.73236213877914 H 0.0 **** 0.06
15818 H 42.15395085421909 81.68927375069026 64.32354327585114 H 0.0 **** 0.06
15819 H 42.86331957696966 80.07027420013901 64.11065404116675 H 0.0 **** 0.06
15820 H 41.09649910301201 80.27934539426127 64.07208122750967 H 0.0 **** 0.06
15821 C 72.7943617341128 101.8979379872989 34.11694351739936 C 0.0 **** -0.24
15822 H 73.53022878688309 101.70812418285902 34.89790708790099 H 0.0 **** 0.06
15823 H 72.10749358160643 101.05337518636166 34.05091613626223 H 0.0 **** 0.06
15824 H 73.30385391343306 102.02857536980498 33.16183286170792 H 0.0 **** 0.06
15825 H 72.2356568414712 102.80306406109737 34.35729413433265 H 0.0 **** 0.06
15826 C 79.74676471740385 53.977770058909464 25.08069678798273 C 0.0 **** -0.24
15827 H 79.27670854400418 53.618697213155734 24.166173128682544 H 0.0 **** 0.06
15828 H 80.50430621613643 54.72091523846206 24.8315786309239 H 0.0 **** 0.06
15829 H 80.21367933636635 53.142844572551624 25.602366089061263 H 0.0 **** 0.06
15830 H 78.99170314802436 54.43116459472628 25.724119846568613 H 0.0 **** 0.06
15831 C 27.359587849571213 43.43767998962815 47.364536850977345 C 0.0 **** -0.24
15832 H 27.354541128416713 44.52447305447021 47.45533421475265 H 0.0 **** 0.06
15833 H 27.854673437443523 43.00394895789697 48.2335111871677 H 0.0 **** 0.06
15834 H 27.895317401993452 43.151443170514824 46.45993969303971 H 0.0 **** 0.06
15835 H 26.333657767039256 43.073586355863284 47.310592262964065 H 0.0 **** 0.06
15836 C 96.95900500654292 51.54154208623373 58.863746622897935 C 0.0 **** -0.24
15837 H 96.02427440049959 52.07234764168402 58.67950505730954 H 0.0 **** 0.06
15838 H 97.12914157175055 50.81845119398076 58.06618168311915 H 0.0 **** 0.06
15839 H 96.89852037313176 51.02113160263667 59.81994759801994 H 0.0 **** 0.06
15840 H 97.78190702499609 52.25528680433001 58.88975499907396 H 0.0 **** 0.06
15841 C 86.68037707035847 30.06245495721498 56.05139087678207 C 0.0 **** -0.24
15842 H 86.54960399475101 31.095755025697656 55.72884143797919 H 0.0 **** 0.06
15843 H 86.14616996410007 29.904049011097527 56.98765953676486 H 0.0 **** 0.06
15844 H 87.74167501390258 29.85963606806223 56.198223954082486 H 0.0 **** 0.06
15845 H 86.28516332862273 29.392035337349085 55.28838081769727 H 0.0 **** 0.06
15846 C 96.33993327513855 56.94540325144927 42.433293176677665 C 0.0 **** -0.24
15847 H 96.77775398717378 56.6560829444025 43.38832850838926 H 0.0 **** 0.06
15848 H 95.64173443493857 56.17429744033732 42.10550054199068 H 0.0 **** 0.06
15849 H 97.13018860014643 57.05979073816147 41.691216520144955 H 0.0 **** 0.06
15850 H 95.80972082626158 57.89019052486169 42.54869441891983 H 0.0 **** 0.06
15851 C 108.21321979290897 3.3109221661486696 32.951727033342365 C 0.0 **** -0.24
15852 H 108.27279450096347 2.942847148848255 31.92702931479179 H 0.0 **** 0.06
15853 H 109.10935505194131 3.8879122757451245 33.18289106299494 H 0.0 **** 0.06
15854 H 108.13666549096943 2.4664717451683575 33.635862693609404 H 0.0 **** 0.06
15855 H 107.33425505943042 3.9472500733163063 33.05823788048527 H 0.0 **** 0.06
15856 C 104.95674410541757 80.14366767626305 18.571958064530463 C 0.0 **** -0.24
15857 H 104.13392995108592 80.82700643396441 18.78020239971886 H 0.0 **** 0.06
15858 H 104.61610637967834 79.36243801411356 17.892655575470144 H 0.0 **** 0.06
15859 H 105.29756155091405 79.69222867068578 19.503269497005846 H 0.0 **** 0.06
15860 H 105.77794299882538 80.69368517032652 18.113275359433032 H 0.0 **** 0.06
15861 C 28.22198700598159 37.27914303022077 8.225399459189816 C 0.0 **** -0.24
15862 H 28.956950364710025 37.25715136791739 7.420267172152194 H 0.0 **** 0.06
15863 H 27.82066499700113 38.28727393014632 8.323166566887792 H 0.0 **** 0.06
15864 H 28.699456401485605 36.98456060698198 9.159738737034019 H 0.0 **** 0.06
15865 H 27.412771041489464 36.585727296384114 7.997027263108222 H 0.0 **** 0.06
15866 C 28.081408335110694 98.70138763493809 31.996426278160186 C 0.0 **** -0.24
15867 H 27.779465022231705 98.24318353715441 31.054301019264585 H 0.0 **** 0.06
15868 H 28.984793857381874 98.21391688330708 32.363048151979484 H 0.0 **** 0.06
15869 H 27.28265230655734 98.58473181036763 32.72836406208117 H 0.0 **** 0.06
15870 H 28.27820271444682 99.7612636087881 31.837402423171795 H 0.0 **** 0.06
15871 C 99.84080782205812 68.30718575776558 104.7520867602467 C 0.0 **** -0.24
15872 H 100.92229163238436 68.28932010135043 104.61253252910797 H 0.0 **** 0.06
15873 H 99.52528610360743 69.31705639142353 105.01539857460287 H 0.0 **** 0.06
15874 H 99.56759525556052 67.61958168855818 105.55321179841448 H 0.0 **** 0.06
15875 H 99.35000066314663 68.00171220123138 103.82748142769043 H 0.0 **** 0.06
15876 C 48.28173309941465 89.96344863023307 89.93601010479443 C 0.0 **** -0.24
15877 H 47.45734886747266 90.55281467613737 90.33709490901819 H 0.0 **** 0.06
15878 H 48.33605726074691 90.10379855068187 88.85629739601029 H 0.0 **** 0.06
15879 H 48.11495751530535 88.90884428685305 90.15808526448419 H 0.0 **** 0.06
15880 H 49.21635541626583 90.2880231136646 90.39261630693824 H 0.0 **** 0.06
15881 C 26.815200978972484 3.5101729782921325 4.670291507372845 C 0.0 **** -0.24
15882 H 26.01586767650835 3.2882622620985558 5.37719929983807 H 0.0 **** 0.06
15883 H 27.149102058584077 4.538368697378587 4.811104803240857 H 0.0 **** 0.06
15884 H 26.444669799127325 3.383109534454377 3.6532274752294747 H 0.0 **** 0.06
15885 H 27.64976274309089 2.829414964916282 4.840456016031309 H 0.0 **** 0.06
15886 C 13.451165898445254 82.0325515541609 62.8647878333002 C 0.0 **** -0.24
15887 H 13.196976892888301 83.01424795129059 63.26227969041568 H 0.0 **** 0.06
15888 H 13.97866722182107 81.45707317560132 63.626167353105174 H 0.0 **** 0.06
15889 H 14.090661489188335 82.14883722786051 61.98924182575796 H 0.0 **** 0.06
15890 H 12.53828477483762 81.5078574372479 62.58101869503389 H 0.0 **** 0.06
15891 C 58.53382781164737 38.536263253498404 3.530838346286032 C 0.0 **** -0.24
15892 H 58.91166849297622 39.174447648057686 4.329748754169444 H 0.0 **** 0.06
15893 H 59.369671620614554 38.041567440864675 3.034719427421564 H 0.0 **** 0.06
15894 H 57.987413227464884 39.14217112482483 2.8081762696859585 H 0.0 **** 0.06
15895 H 57.865668102541576 37.78499306123173 3.9530959519891837 H 0.0 **** 0.06
15896 C 80.75521363237846 98.59121547515453 72.93980629260545 C 0.0 **** -0.24
15897 H 80.08724781004048 97.83939843151374 72.51752486201087 H 0.0 **** 0.06
15898 H 80.18836587098372 99.25150804656164 73.59624903437577 H 0.0 **** 0.06
15899 H 81.20147807703285 99.17376179809868 72.13388225463154 H 0.0 **** 0.06
15900 H 81.54206430254908 98.09846463176126 73.51011087335706 H 0.0 **** 0.06
15901 C 21.15166691428402 29.6175005765283 2.7734443897708587 C 0.0 **** -0.24
15902 H 21.831086800138877 29.160091969086494 2.054955236095779 H 0.0 **** 0.06
15903 H 21.72761627503158 30.153664929590775 3.52796401947694 H 0.0 **** 0.06
15904 H 20.555533383337036 28.842135892758478 3.253851628195804 H 0.0 **** 0.06
15905 H 20.491541456605034 30.314417780027753 2.2555528931998055 H 0.0 **** 0.06
15906 C 105.6239470282845 55.071874678265885 51.45747159906653 C 0.0 **** -0.24
15907 H 105.77258561667546 54.02747838152771 51.73248559262574 H 0.0 **** 0.06
15908 H 106.44761081234225 55.40106733349495 50.8244219405368 H 0.0 **** 0.06
15909 H 105.58994049189143 55.68399420914145 52.35854981510075 H 0.0 **** 0.06
15910 H 104.68439393480766 55.173328952493925 50.91355544142399 H 0.0 **** 0.06
15911 C 50.5729795159848 73.42776116679265 77.99978130320373 C 0.0 **** -0.24
15912 H 49.647120769706135 73.80690038571863 78.43112653843365 H 0.0 **** 0.06
15913 H 51.26784107621026 74.25480209188505 77.8498229317309 H 0.0 **** 0.06
15914 H 50.36014918333481 72.9535312867854 77.04186743104704 H 0.0 **** 0.06
15915 H 51.01679026724514 72.69751845541826 78.67659836966303 H 0.0 **** 0.06
15916 C 71.7812701351593 89.3208845490962 80.25224979978455 C 0.0 **** -0.24
15917 H 72.24954802828344 88.37560266902685 79.98006116153334 H 0.0 **** 0.06
15918 H 71.1632047990031 89.17801361550687 81.1384618808267 H 0.0 **** 0.06
15919 H 71.16070305344071 89.67027529217319 79.42779344717854 H 0.0 **** 0.06
15920 H 72.55409571387712 90.06073333991782 80.46352730040667 H 0.0 **** 0.06
15921 C 79.28208554603926 53.297045057742025 94.81077634543539 C 0.0 **** -0.24
15922 H 80.32075717186038 53.18182892572304 95.12111204185089 H 0.0 **** 0.06
15923 H 78.88660991099262 54.23292755623953 95.20447630905738 H 0.0 **** 0.06
15924 H 78.6948938374171 52.462950908065466 95.1943784260109 H 0.0 **** 0.06
15925 H 79.22882127683243 53.308999371922994 93.72131600455901 H 0.0 **** 0.06
15926 C 55.09362458820619 66.21839269998605 4.454991827133284 C 0.0 **** -0.24
15927 H 54.14748772801409 65.69441546845064 4.588863450669578 H 0.0 **** 0.06
15928 H 55.30300924876759 66.82110782207332 5.338492396520763 H 0.0 **** 0.06
15929 H 55.03044280535587 66.86466875942034 3.5798729673796856 H 0.0 **** 0.06
15930 H 55.8936689824827 65.49196986453774 4.312792822078876 H 0.0 **** 0.06
15931 C 12.289894679627597 47.425256579281736 106.09027392339851 C 0.0 **** -0.24
15932 H 12.54878982490552 47.27800094442726 105.04189145541699 H 0.0 **** 0.06
15933 H 11.438891196658677 46.794643105861084 106.34568222628988 H 0.0 **** 0.06
15934 H 12.030817283146632 48.471258809638805 106.25617450145532 H 0.0 **** 0.06
15935 H 13.141871646450866 47.15872579351149 106.71600336735051 H 0.0 **** 0.06
15936 C 56.705965235617974 77.44487173193545 24.21009581255194 C 0.0 **** -0.24
15937 H 56.869673533251365 76.38303824028334 24.022831229048023 H 0.0 **** 0.06
15938 H 57.46852446002522 78.0269295759578 23.691651142362872 H 0.0 **** 0.06
15939 H 56.766720506604635 77.63829596394395 25.28067581994324 H 0.0 **** 0.06
15940 H 55.71966572627055 77.73029832789551 23.84443659841213 H 0.0 **** 0.06
15941 C 2.567754760416335 109.9458551867168 25.67288821566106 C 0.0 **** -0.24
15942 H 2.514457569933853 111.02699189392239 25.803985892529216 H 0.0 **** 0.06
15943 H 2.9531784357572803 109.72050211916091 24.67851237221529 H 0.0 **** 0.06
15944 H 1.5719226520414509 109.5175033431901 25.782226189618175 H 0.0 **** 0.06
15945 H 3.2314943212666094 109.52125531908088 26.425838720553404 H 0.0 **** 0.06
15946 C 76.21402333851148 24.41256396743779 57.96339310975073 C 0.0 **** -0.24
15947 H 77.29809866052591 24.492225147055876 58.04360233133328 H 0.0 **** 0.06
15948 H 75.75330241205575 24.801378740231826 58.872002529622534 H 0.0 **** 0.06
15949 H 75.93550637576959 23.36673341006832 57.834100898588744 H 0.0 **** 0.06
15950 H 75.87077843284226 24.989373667259542 57.10533881636223 H 0.0 **** 0.06
15951 C 12.648922600876745 0.1561833276917639 60.89238822494825 C 0.0 **** -0.24
15952 H 12.867739147733786 1.2242115020072646 60.88957875613872 H 0.0 **** 0.06
15953 H 12.631741751756635 -0.21397807193851293 59.86823101366788 H 0.0 **** 0.06
15954 H 11.677033592840928 -0.013048082339778944 61.35743476750463 H 0.0 **** 0.06
15955 H 13.417978958593011 -0.3703873846276622 61.45719024019226 H 0.0 **** 0.06
15956 C 35.56822669015836 46.47843475986298 44.339194998055575 C 0.0 **** -0.24
15957 H 36.07350566219113 46.22754907987803 45.271830653407704 H 0.0 **** 0.06
15958 H 34.50519170879589 46.62873295646557 44.53105661411243 H 0.0 **** 0.06
15959 H 35.69645815092217 45.66351352788831 43.62631573631535 H 0.0 **** 0.06
15960 H 35.996127874688156 47.39234495352969 43.92847683241669 H 0.0 **** 0.06
15961 C 68.7641436697859 43.18435285191026 73.79573022696945 C 0.0 **** -0.24
15962 H 68.44725669383118 44.22520675456424 73.72796929556989 H 0.0 **** 0.06
15963 H 68.28427942338928 42.71302265321373 74.65297630593233 H 0.0 **** 0.06
15964 H 69.84701928939373 43.14235812427148 73.9164680016832 H 0.0 **** 0.06
15965 H 68.47910106593572 42.65759858465535 72.88502808715498 H 0.0 **** 0.06
15966 C 34.653081463232155 110.00159945963249 36.76847877009652 C 0.0 **** -0.24
15967 H 35.662151341361806 110.41468914397417 36.78012654610882 H 0.0 **** 0.06
15968 H 34.244230397530856 110.01358445466676 37.77910230332702 H 0.0 **** 0.06
15969 H 34.68525169442404 108.97545437933904 36.40163124523946 H 0.0 **** 0.06
15970 H 34.022425410482526 110.60143605698859 36.11374398701878 H 0.0 **** 0.06
15971 C 81.54406280099751 3.326749027764933 41.83797713446856 C 0.0 **** -0.24
15972 H 82.00620460707471 2.6181686258832 42.525107749568406 H 0.0 **** 0.06
15973 H 81.72295019493309 3.007064398978912 40.8114379174294 H 0.0 **** 0.06
15974 H 81.97797370979842 4.316009849722434 41.99080772780519 H 0.0 **** 0.06
15975 H 80.47076153068438 3.3675403106037436 42.02490281546335 H 0.0 **** 0.06
15976 C 97.26727938257272 18.89887800166875 25.64871540567296 C 0.0 **** -0.24
15977 H 96.44394843510341 18.185396354636367 25.623106889724397 H 0.0 **** 0.06
15978 H 96.88013636271637 19.906759332240256 25.495365173630887 H 0.0 **** 0.06
15979 H 97.97993245937643 18.659693986432302 24.8600315142144 H 0.0 **** 0.06
15980 H 97.76550877385807 18.843766707089173 26.61726484362788 H 0.0 **** 0.06
15981 C 39.50353987669308 91.42425194781973 63.61888800253662 C 0.0 **** -0.24
15982 H 38.46778490482728 91.35773064499124 63.286183514417516 H 0.0 **** 0.06
15983 H 40.16558305622465 91.40174797360723 62.75251672130871 H 0.0 **** 0.06
15984 H 39.72933425770054 90.58135969718994 64.27171206715651 H 0.0 **** 0.06
15985 H 39.64930629217815 92.35624560766036 64.1657460670314 H 0.0 **** 0.06
15986 C 99.72088867911432 12.91159861756742 85.75830365140094 C 0.0 **** -0.24
15987 H 100.13720352148081 13.802130908827138 86.22868530284069 H 0.0 **** 0.06
15988 H 98.85167127473879 12.575025942049251 86.32375098965994 H 0.0 **** 0.06
15989 H 100.47422870670515 12.122810783564262 85.74560025253288 H 0.0 **** 0.06
15990 H 99.4221956681062 13.145743544979865 84.73675612695708 H 0.0 **** 0.06
15991 C 21.73031596572482 0.8289471621217643 1.372302005313344 C 0.0 **** -0.24
15992 H 20.867206676047434 1.406558640627253 1.7054748446643924 H 0.0 **** 0.06
15993 H 21.969052230772185 0.07044240677964808 2.118574288858113 H 0.0 **** 0.06
15994 H 22.58391818674338 1.4940470756902613 1.2442237103405036 H 0.0 **** 0.06
15995 H 21.499186408566004 0.34668894456171984 0.4228306574684568 H 0.0 **** 0.06
15996 C 86.24070040175098 43.44693726805214 75.67052556202896 C 0.0 **** -0.24
15997 H 87.18421140799813 43.968562151892655 75.83052301041386 H 0.0 **** 0.06
15998 H 85.66175696370323 43.96976193683966 74.9084713312738 H 0.0 **** 0.06
15999 H 85.67590240879701 43.422309043002244 76.60313345001339 H 0.0 **** 0.06
16000 H 86.44025361225093 42.42831768665039 75.33966254691563 H 0.0 **** 0.06
16001 C 71.18574035380169 102.8682150967132 23.685412957865907 C 0.0 **** -0.24
16002 H 71.86555280363272 102.12966292287028 23.261035259170768 H 0.0 **** 0.06
16003 H 71.11460524970262 102.7180492015621 24.76339060618281 H 0.0 **** 0.06
16004 H 70.19943522641479 102.75402623508087 23.236138197448554 H 0.0 **** 0.06
16005 H 71.5648797250905 103.86959526536336 23.48170772513953 H 0.0 **** 0.06
16006 C 13.627700486160734 74.88469057581437 97.20748259754555 C 0.0 **** -0.24
16007 H 14.610139359780646 75.35235846999387 97.15873590235066 H 0.0 **** 0.06
16008 H 13.736174076602083 73.8424958750416 97.5112070159426 H 0.0 **** 0.06
16009 H 13.154006958021853 74.92937078561846 96.22687266196385 H 0.0 **** 0.06
16010 H 13.009361840149609 75.41245809452653 97.93376595148558 H 0.0 **** 0.06
16011 C 72.44242804672653 40.678006298200884 91.75922577884552 C 0.0 **** -0.24
16012 H 73.29053416303798 41.36274320235091 91.7433155809099 H 0.0 **** 0.06
16013 H 71.65737409560423 41.05783773528333 91.10457766155974 H 0.0 **** 0.06
16014 H 72.06047551452447 40.59706491908412 92.776752915045 H 0.0 **** 0.06
16015 H 72.7624697345639 39.69606376221867 91.41132940907386 H 0.0 **** 0.06
16016 C 93.33427277429183 4.862135751211355 19.439042343172673 C 0.0 **** -0.24
16017 H 93.63022586957868 3.8560712134777475 19.14354684191514 H 0.0 **** 0.06
16018 H 92.30562491059706 5.044326246893775 19.1273454619012 H 0.0 **** 0.06
16019 H 93.9924756769097 5.589506432652371 18.96295137943929 H 0.0 **** 0.06
16020 H 93.4088266074859 4.959879754067828 20.521649621825503 H 0.0 **** 0.06
16021 C 11.285915662761454 45.84401114692844 90.94269068511232 C 0.0 **** -0.24
16022 H 11.618201809698604 46.86589441376748 90.7560752870694 H 0.0 **** 0.06
16023 H 11.0551627557615 45.72606407273082 92.00206048917548 H 0.0 **** 0.06
16024 H 12.07741693097239 45.14816897965295 90.66316575285805 H 0.0 **** 0.06
16025 H 10.394191597648756 45.63820861904583 90.35120255597374 H 0.0 **** 0.06
16026 C 95.36879586963121 87.96125948038404 9.108843574700472 C 0.0 **** -0.24
16027 H 95.38909058043747 88.61190879134698 8.23389821061727 H 0.0 **** 0.06
16028 H 94.40295825601031 88.05250564099836 9.605866289434175 H 0.0 **** 0.06
16029 H 96.16233333833867 88.25383090953277 9.79680069591737 H 0.0 **** 0.06
16030 H 95.52107836395872 86.92820760809327 8.796178250374936 H 0.0 **** 0.06
16031 C 10.915519674513234 93.76213406942804 9.461719326799923 C 0.0 **** -0.24
16032 H 11.700599529223496 94.12148115609125 8.796371276417673 H 0.0 **** 0.06
16033 H 10.217759566608123 94.5732208294919 9.670011986208351 H 0.0 **** 0.06
16034 H 11.360748018584218 93.41540641801572 10.394204384503894 H 0.0 **** 0.06
16035 H 10.38445455103303 92.93886303154954 8.983355039351366 H 0.0 **** 0.06
16036 C 53.194463087951085 71.1610239712806 4.5207944352956115 C 0.0 **** -0.24
16037 H 52.22645904947628 70.67375835889851 4.639837128598527 H 0.0 **** 0.06
16038 H 53.440087602206894 71.70705779992068 5.4322166435342805 H 0.0 **** 0.06
16039 H 53.15035681579364 71.85568175051881 3.681783735162412 H 0.0 **** 0.06
16040 H 53.95925350808508 70.40790134378284 4.3307663890825765 H 0.0 **** 0.06
16041 C 53.77312587622495 24.84294159910297 110.03639950749822 C 0.0 **** -0.24
16042 H 54.68376093854351 24.39696465337954 110.43632084757637 H 0.0 **** 0.06
16043 H 53.93396415992582 25.908421161872894 109.86904022035247 H 0.0 **** 0.06
16044 H 52.95901616347885 24.706163533666057 110.74720946760897 H 0.0 **** 0.06
16045 H 53.51715539790591 24.36040595361419 109.0928740855063 H 0.0 **** 0.06
16046 C 93.28760642676392 20.162294888257975 2.50088008828763 C 0.0 **** -0.24
16047 H 93.29429816456248 21.154176019537374 2.953428210050248 H 0.0 **** 0.06
16048 H 94.26669949322809 19.699512754876025 2.627099053351799 H 0.0 **** 0.06
16049 H 93.06143303589579 20.249291162390875 1.4379116016469595 H 0.0 **** 0.06
16050 H 92.5293626805951 19.54654609192812 2.9851791687176785 H 0.0 **** 0.06
16051 C 1.0769730523198575 81.92930452227671 94.40708531099114 C 0.0 **** -0.24
16052 H 1.0532133464063236 82.51949015986634 95.32372873808507 H 0.0 **** 0.06
16053 H 2.0938188278556993 81.58459697908009 94.2226454953985 H 0.0 **** 0.06
16054 H 0.742606800586401 82.54409304859868 93.57062187696096 H 0.0 **** 0.06
16055 H 0.41465075398161844 81.0693965212206 94.51229077110344 H 0.0 **** 0.06
16056 C 108.5204886899679 84.88045079557128 101.09631689307628 C 0.0 **** -0.24
16057 H 108.42901057732288 85.9009633888586 101.46637697748355 H 0.0 **** 0.06
16058 H 107.53797927916617 84.40823205049367 101.0856650073477 H 0.0 **** 0.06
16059 H 109.18791201755711 84.31602506030151 101.7479037619874 H 0.0 **** 0.06
16060 H 108.92713065622814 84.89521870066642 100.08425709275167 H 0.0 **** 0.06
16061 C 53.29514662897628 23.18608209040434 47.15898255463463 C 0.0 **** -0.24
16062 H 52.95009981485242 22.70812925973098 48.07609407674863 H 0.0 **** 0.06
16063 H 52.89884797683328 22.64676326163422 46.29803228671565 H 0.0 **** 0.06
16064 H 54.38471770457491 23.170536646351707 47.128618866691056 H 0.0 **** 0.06
16065 H 52.945647666830126 24.218197085059103 47.134126140133816 H 0.0 **** 0.06
16066 C 17.723661511599346 50.18542728300052 60.53697031991186 C 0.0 **** -0.24
16067 H 17.642315671018146 49.49113524951814 59.69986684750319 H 0.0 **** 0.06
16068 H 18.430810362313174 49.791630524802116 61.26725544608425 H 0.0 **** 0.06
16069 H 16.747312486769616 50.306197677959695 61.00466867236736 H 0.0 **** 0.06
16070 H 18.075621490166853 51.15145453035247 60.17400847755624 H 0.0 **** 0.06
16071 C 106.6848687049092 21.07889493805382 17.674580321586006 C 0.0 **** -0.24
16072 H 107.25022097212934 20.867741001648653 18.583097595391962 H 0.0 **** 0.06
16073 H 105.64587709400104 20.783838347583867 17.81673061390879 H 0.0 **** 0.06
16074 H 107.11238831517989 20.517445742341835 16.843488542128114 H 0.0 **** 0.06
16075 H 106.73483919073556 22.14554396844113 17.45607741043493 H 0.0 **** 0.06
16076 C 95.13299518646028 24.09470995752784 44.66189428416442 C 0.0 **** -0.24
16077 H 94.90081633322781 23.383242777543387 45.454958727335224 H 0.0 **** 0.06
16078 H 95.77700938943808 23.616151320843727 43.923830540355354 H 0.0 **** 0.06
16079 H 95.64492425696464 24.957693183848306 45.08661568020648 H 0.0 **** 0.06
16080 H 94.20906796887614 24.418803696841394 44.18269966112912 H 0.0 **** 0.06
16081 C 53.06303570773812 34.53729474501341 90.37725172783088 C 0.0 **** -0.24
16082 H 53.35143862640977 34.77803035449995 89.35453045414944 H 0.0 **** 0.06
16083 H 52.2777005155853 35.21907827040434 90.70399720114798 H 0.0 **** 0.06
16084 H 53.92823554818856 34.63876704283206 91.03260533724733 H 0.0 **** 0.06
16085 H 52.69426400402545 33.511666691943276 90.41813367006053 H 0.0 **** 0.06
16086 C 107.97194493905323 23.086957659788567 62.432252376675294 C 0.0 **** -0.24
16087 H 108.8475591300463 23.703115379987423 62.225604773303544 H 0.0 **** 0.06
16088 H 107.56236091038079 22.713102744387186 61.493986878153464 H 0.0 **** 0.06
16089 H 107.21993347914076 23.68583266867364 62.94600836977118 H 0.0 **** 0.06
16090 H 108.26154575217902 22.246604129106714 63.063878919938915 H 0.0 **** 0.06
16091 C 95.36139144239348 26.12545433858996 18.248544382525864 C 0.0 **** -0.24
16092 H 95.1288401014233 25.0947426459944 17.979352902386637 H 0.0 **** 0.06
16093 H 96.16588930982641 26.136344516072057 18.98295179403803 H 0.0 **** 0.06
16094 H 94.47474769512883 26.598101065980586 18.67231167597697 H 0.0 **** 0.06
16095 H 95.67315216242207 26.671459403258254 17.358143654787455 H 0.0 **** 0.06
16096 C 17.746357207899337 58.04933329905356 71.73957672283751 C 0.0 **** -0.24
16097 H 17.52511026803188 57.029944401881465 72.05654489686638 H 0.0 **** 0.06
16098 H 17.91199905183089 58.06628454641583 70.66244898770174 H 0.0 **** 0.06
16099 H 18.641041464536556 58.40264507917823 72.25197948027031 H 0.0 **** 0.06
16100 H 16.90443749565452 58.69660048239544 71.98802429082322 H 0.0 **** 0.06
16101 C 13.977919275022401 23.751153332301797 4.1421362996304225 C 0.0 **** -0.24
16102 H 13.116440869375225 23.87607921062026 4.797826921919508 H 0.0 **** 0.06
16103 H 14.761661451099357 23.207889552223065 4.671114043862914 H 0.0 **** 0.06
16104 H 14.352798394411138 24.72968961295726 3.8444316568357095 H 0.0 **** 0.06
16105 H 13.681200765894175 23.190211979669826 3.2556902064027184 H 0.0 **** 0.06
16106 C 49.36745270549534 107.40589418768556 50.98911549666266 C 0.0 **** -0.24
16107 H 49.37634013474528 107.3606161597937 52.07791144659913 H 0.0 **** 0.06
16108 H 48.64210961689554 106.69073751024104 50.60155770003098 H 0.0 **** 0.06
16109 H 50.35860988715635 107.16154801818311 50.60651369120319 H 0.0 **** 0.06
16110 H 49.09335832143677 108.41136716813384 50.67008873462041 H 0.0 **** 0.06
16111 C 38.96153161239414 100.3056997735714 50.9376760916395 C 0.0 **** -0.24
16112 H 38.652904523124676 99.29343667188418 50.67557784541877 H 0.0 **** 0.06
16113 H 38.10687590456047 100.85359787063886 51.334785697736905 H 0.0 **** 0.06
16114 H 39.33801544289503 100.81236958682591 50.04908430975121 H 0.0 **** 0.06
16115 H 39.74736158329972 100.2614182856462 51.69164899003264 H 0.0 **** 0.06
16116 C 0.15065104711510102 59.92245153063658 99.63172509992224 C 0.0 **** -0.24
16117 H 0.39361569671406293 60.23728181185339 100.64724165384229 H 0.0 **** 0.06
16118 H -0.24204056113792838 60.77224411547283 99.07397734163452 H 0.0 **** 0.06
16119 H -0.5984612361217669 59.131736164827885 99.66588212297447 H 0.0 **** 0.06
16120 H 1.0500462934297534 59.549753552790946 99.14248784351985 H 0.0 **** 0.06
16121 C 47.78854385310197 37.50393262528062 72.90407441645823 C 0.0 **** -0.24
16122 H 47.463640003026 36.48521153128321 72.69075402184922 H 0.0 **** 0.06
16123 H 47.201893527193846 37.90673112699858 73.72977381578198 H 0.0 **** 0.06
16124 H 47.64482339839461 38.122584153833465 72.01903861093024 H 0.0 **** 0.06
16125 H 48.84480864749116 37.497773384780764 73.1762279853429 H 0.0 **** 0.06
16126 C 76.46625070582371 104.63290285211373 5.46521446686711 C 0.0 **** -0.24
16127 H 77.44598609032747 104.57801195105671 5.939414087156308 H 0.0 **** 0.06
16128 H 76.3906662723474 105.55653731081975 4.892135006223896 H 0.0 **** 0.06
16129 H 75.69085525431402 104.61570002799732 6.2316136634921975 H 0.0 **** 0.06
16130 H 76.33780319261831 103.77931574108567 4.79986719164296 H 0.0 **** 0.06
16131 C 18.092044301623787 16.44585201615996 84.60262404088024 C 0.0 **** -0.24
16132 H 18.454627408839826 15.454473629847044 84.87383817185457 H 0.0 **** 0.06
16133 H 18.70283408893357 16.84697503976676 83.79401481952192 H 0.0 **** 0.06
16134 H 18.157342274410325 17.10487018018864 85.46870197849944 H 0.0 **** 0.06
16135 H 17.054252651176512 16.37672642907107 84.27538878302937 H 0.0 **** 0.06
16136 C 89.27350673013177 89.73082264932344 87.24139646114855 C 0.0 **** -0.24
16137 H 88.18993294561034 89.813650313766 87.15140083336792 H 0.0 **** 0.06
16138 H 89.71785743678046 90.72545030103507 87.20821510838925 H 0.0 **** 0.06
16139 H 89.66027396483165 89.13169559193761 86.41665308330738 H 0.0 **** 0.06
16140 H 89.52407111876124 89.25164328234419 88.18714922477483 H 0.0 **** 0.06
16141 C 34.69091153426035 100.91093750068582 15.92711220697845 C 0.0 **** -0.24
16142 H 33.75614614208678 100.86930004262557 16.486001018919822 H 0.0 **** 0.06
16143 H 35.53069572822167 100.83754637482085 16.618132455249324 H 0.0 **** 0.06
16144 H 34.747731446831864 101.85462295080859 15.384029311763115 H 0.0 **** 0.06
16145 H 34.72907281990098 100.08228063448854 15.220286041981524 H 0.0 **** 0.06
16146 C 106.05178173358667 31.482010972333427 78.51620568743408 C 0.0 **** -0.24
16147 H 106.21408779325077 30.64855753317508 79.19862913992131 H 0.0 **** 0.06
16148 H 105.49374379809086 32.266934445023566 79.02679215586272 H 0.0 **** 0.06
16149 H 105.48438317842695 31.137052117674443 77.65108773967154 H 0.0 **** 0.06
16150 H 107.01335962963356 31.874947345125463 78.18680219601444 H 0.0 **** 0.06
16151 C 104.9153592383469 71.79508722027586 13.583051951565551 C 0.0 **** -0.24
16152 H 104.70257010625079 72.86403189819119 13.585841918482458 H 0.0 **** 0.06
16153 H 104.19584647697468 71.28391032305002 12.943067325349602 H 0.0 **** 0.06
16154 H 104.83938360749718 71.40741049504265 14.598585385467288 H 0.0 **** 0.06
16155 H 105.92383788349596 71.6270666126626 13.203892782223875 H 0.0 **** 0.06
16156 C 92.48008671003547 22.56353228241369 38.66082826346485 C 0.0 **** -0.24
16157 H 93.06796017443165 23.375834179378444 39.08887052463072 H 0.0 **** 0.06
16158 H 91.42715623121923 22.848553001392673 38.64254068654125 H 0.0 **** 0.06
16159 H 92.60359958919324 21.667931808362397 39.26887845873955 H 0.0 **** 0.06
16160 H 92.82101693751541 22.364118264814465 37.644838909210904 H 0.0 **** 0.06
16161 C 80.71705949376476 63.12159424135808 78.22250797820357 C 0.0 **** -0.24
16162 H 79.85706583006964 63.54253496873511 77.7031348415307 H 0.0 **** 0.06
16163 H 80.37580140991633 62.54009934352196 79.07951578663224 H 0.0 **** 0.06
16164 H 81.36614592724555 63.92805485526435 78.56515920337415 H 0.0 **** 0.06
16165 H 81.27112316111334 62.47432191362702 77.54149344104346 H 0.0 **** 0.06
16166 C 16.635903705957123 55.35593877596 17.917308171211516 C 0.0 **** -0.24
16167 H 16.183783474491772 56.32194433535892 17.694285195069938 H 0.0 **** 0.06
16168 H 15.868452374988351 54.582179975092515 17.895825465821815 H 0.0 **** 0.06
16169 H 17.093002509379943 55.388999503132254 18.906377134137983 H 0.0 **** 0.06
16170 H 17.39858928617772 55.132564031504046 17.171640593755285 H 0.0 **** 0.06
16171 C 78.89553599728357 67.20911530856024 68.22923419906182 C 0.0 **** -0.24
16172 H 78.48441441601976 67.93189086920577 68.93463926875772 H 0.0 **** 0.06
16173 H 79.00989582537707 67.67933171447305 67.25317936920801 H 0.0 **** 0.06
16174 H 78.21776158394243 66.3585828289063 68.14639607349554 H 0.0 **** 0.06
16175 H 79.86671704559156 66.86673307175215 68.58404036695144 H 0.0 **** 0.06
16176 C 30.91047092669305 84.31630151480857 43.76408874938846 C 0.0 **** -0.24
16177 H 31.23432533463722 83.86851763503 42.82395646695379 H 0.0 **** 0.06
16178 H 30.456121747114594 85.28730508650403 43.56624124560122 H 0.0 **** 0.06
16179 H 31.770379344619414 84.44402921510101 44.42140972526377 H 0.0 **** 0.06
16180 H 30.18037548710845 83.664548695147 44.24380599450609 H 0.0 **** 0.06
16181 C 84.29810727020583 42.621472194256995 44.24876546879565 C 0.0 **** -0.24
16182 H 83.98413218096945 43.174050927065764 45.13323198809161 H 0.0 **** 0.06
16183 H 85.22352348938682 42.085452494823585 44.464912529816075 H 0.0 **** 0.06
16184 H 84.46392490883659 43.31584552297349 43.425490369484606 H 0.0 **** 0.06
16185 H 83.52137813566134 41.908399771155786 43.971800990540004 H 0.0 **** 0.06
16186 C 14.7360046732326 50.308355205103844 98.71850362746203 C 0.0 **** -0.24
16187 H 14.271628281269386 49.349806486135726 98.48735942790816 H 0.0 **** 0.06
16188 H 15.175391726443266 50.268328672945664 99.71478349900859 H 0.0 **** 0.06
16189 H 13.981462672271277 51.09418215524692 98.68428227026114 H 0.0 **** 0.06
16190 H 15.51441935159545 50.52010748267704 97.98518901956005 H 0.0 **** 0.06
16191 C 44.395977187932516 46.9932797483118 65.13125115350492 C 0.0 **** -0.24
16192 H 44.07397842823231 48.003641676823726 64.88174316387372 H 0.0 **** 0.06
16193 H 44.0904617014076 46.307984604585556 64.34059282930576 H 0.0 **** 0.06
16194 H 43.93777864558254 46.68881012935253 66.07290721710447 H 0.0 **** 0.06
16195 H 45.48117425284241 46.972130062564446 65.2313198971334 H 0.0 **** 0.06
16196 C 29.568669782207877 11.57833258617785 11.211632530675246 C 0.0 **** -0.24
16197 H 29.10521638338389 11.795125711193805 10.248291726035418 H 0.0 **** 0.06
16198 H 29.104221799753816 12.19280722610796 11.983260517685835 H 0.0 **** 0.06
16199 H 30.633847614296656 11.801493720398184 11.160485960944271 H 0.0 **** 0.06
16200 H 29.428792804726413 10.52481054650218 11.452643832553079 H 0.0 **** 0.06
16201 C 24.029428231817008 0.8600703814368273 96.40715323244017 C 0.0 **** -0.24
16202 H 24.46759411905788 0.8176843041016753 95.40910017891596 H 0.0 **** 0.06
16203 H 23.829932420521402 -0.1517361049789514 96.75913867821141 H 0.0 **** 0.06
16204 H 23.09605589425385 1.4221384486063755 96.36939981400491 H 0.0 **** 0.06
16205 H 24.724390171060634 1.352760810379678 97.08728467979365 H 0.0 **** 0.06
16206 C 15.999250225872174 30.809973605833704 4.5360650368406255 C 0.0 **** -0.24
16207 H 16.562155148294778 30.78374109814672 5.469762899075334 H 0.0 **** 0.06
16208 H 15.229092543143565 31.578239977263337 4.597445895775252 H 0.0 **** 0.06
16209 H 15.532586097290846 29.839046043454857 4.367381803876668 H 0.0 **** 0.06
16210 H 16.674622254929147 31.03615355380748 3.7112565986526533 H 0.0 **** 0.06
16211 C 27.721280453769083 64.87387623098965 100.27986819728298 C 0.0 **** -0.24
16212 H 28.35877267235952 65.40171802499877 100.98969386735281 H 0.0 **** 0.06
16213 H 27.935196402534558 65.22365346404904 99.27015310773545 H 0.0 **** 0.06
16214 H 26.67524973657072 65.06760945423136 100.51805494319784 H 0.0 **** 0.06
16215 H 27.916251244872285 63.803483708890255 100.3437975166304 H 0.0 **** 0.06
16216 C 84.74628251210652 82.7536897081123 84.3946319777221 C 0.0 **** -0.24
16217 H 85.2379785267346 82.09216072587108 85.1071311800051 H 0.0 **** 0.06
16218 H 84.10096838859772 83.4497879785812 84.9304664779131 H 0.0 **** 0.06
16219 H 84.14616772057445 82.16115962027749 83.70442400953063 H 0.0 **** 0.06
16220 H 85.49806763008343 83.3105596062627 83.8366340283411 H 0.0 **** 0.06
16221 C 4.448100156622019 39.352508771646654 109.8760704132738 C 0.0 **** -0.24
16222 H 4.111311715485087 38.63963365941194 109.12274418706181 H 0.0 **** 0.06
16223 H 5.533317091729714 39.30168822231664 109.96344430962012 H 0.0 **** 0.06
16224 H 3.994163422588173 39.108274486239765 110.83599996298716 H 0.0 **** 0.06
16225 H 4.15332953010838 40.35869980972382 109.58039062743524 H 0.0 **** 0.06
16226 C 89.77362531350809 90.94102954211691 47.90709287861637 C 0.0 **** -0.24
16227 H 90.78811467351753 90.5886466030326 47.71684722815837 H 0.0 **** 0.06
16228 H 89.5981365992717 90.97853547161232 48.98289156832266 H 0.0 **** 0.06
16229 H 89.06018127631697 90.25890550750725 47.44592796019265 H 0.0 **** 0.06
16230 H 89.64995010111389 91.93726035629815 47.48407128469222 H 0.0 **** 0.06
16231 C 16.43025688286144 72.00971388799303 87.88493692018301 C 0.0 **** -0.24
16232 H 15.760814768340861 72.76404560139758 88.29930474207168 H 0.0 **** 0.06
16233 H 17.463148997832818 72.28310413556477 88.10420037517954 H 0.0 **** 0.06
16234 H 16.290328554079334 71.9533839348586 86.80502591731397 H 0.0 **** 0.06
16235 H 16.20738467892357 71.04121484058447 88.33167427494061 H 0.0 **** 0.06
16236 C 10.645961661311986 44.18105169144343 66.23679334973622 C 0.0 **** -0.24
16237 H 11.221484578847281 45.01179503150132 66.64476956375347 H 0.0 **** 0.06
16238 H 11.238647928398706 43.66673916986264 65.47947544278674 H 0.0 **** 0.06
16239 H 9.730013655320448 44.56219829020881 65.78459838837057 H 0.0 **** 0.06
16240 H 10.394140428334367 43.485070460912254 67.03682704455605 H 0.0 **** 0.06
16241 C 70.06482270544518 80.8817988107998 62.33287844766096 C 0.0 **** -0.24
16242 H 70.39295598955675 79.96088534744848 62.814217869885454 H 0.0 **** 0.06
16243 H 69.4998131714865 81.48220029367748 63.04577325711233 H 0.0 **** 0.06
16244 H 69.43209846359241 80.63956412825337 61.47920397352112 H 0.0 **** 0.06
16245 H 70.934940175338 81.44394552174826 61.99292929747591 H 0.0 **** 0.06
16246 C 43.64266975804081 55.88236036078723 109.7038873068107 C 0.0 **** -0.24
16247 H 43.18331723134116 54.912610147452256 109.51233441006917 H 0.0 **** 0.06
16248 H 42.917092527203145 56.67278964232324 109.50935449698527 H 0.0 **** 0.06
16249 H 44.50491232872678 56.01102317784802 109.0489809000431 H 0.0 **** 0.06
16250 H 43.965787621655736 55.9323213201356 110.74430623416755 H 0.0 **** 0.06
16251 C 9.8623384364517 46.584894857706956 28.16649675071679 C 0.0 **** -0.24
16252 H 9.998587509056204 46.7511308506704 29.235355274800227 H 0.0 **** 0.06
16253 H 9.093634631018588 45.827108878995226 28.01233565835234 H 0.0 **** 0.06
16254 H 10.801611278052338 46.24465223899899 27.730274066079588 H 0.0 **** 0.06
16255 H 9.55638688331813 47.51565854239629 27.690069125297924 H 0.0 **** 0.06
16256 C 44.0597439182489 67.10290507626861 23.836841520578446 C 0.0 **** -0.24
16257 H 43.46432666313615 66.73144820805234 23.003667620561515 H 0.0 **** 0.06
16258 H 43.56673870222028 66.8516429433193 24.776157734305258 H 0.0 **** 0.06
16259 H 44.161271880047195 68.18480553345346 23.757442804348955 H 0.0 **** 0.06
16260 H 45.04740910202372 66.64163491118467 23.810306745390022 H 0.0 **** 0.06
16261 C 73.54751918479488 23.261045627829073 45.514190104461306 C 0.0 **** -0.24
16262 H 73.6577500212349 23.929179932272934 44.659423177213 H 0.0 **** 0.06
16263 H 73.68680532009279 22.22962751609312 45.18899350694704 H 0.0 **** 0.06
16264 H 72.55061075363588 23.37834033920573 45.93883966911389 H 0.0 **** 0.06
16265 H 74.29557633461104 23.508896698502173 46.26748161345482 H 0.0 **** 0.06
16266 C 43.00778722969966 66.56197009823012 4.384417132492501 C 0.0 **** -0.24
16267 H 41.99088631260224 66.64612602116398 4.000588971858178 H 0.0 **** 0.06
16268 H 42.97881744386024 66.200759486668 5.412612346087002 H 0.0 **** 0.06
16269 H 43.4884603746346 67.53896292886367 4.355799273607062 H 0.0 **** 0.06
16270 H 43.571881645135306 65.86078667082663 3.7681857646032597 H 0.0 **** 0.06
16271 C 39.11914268708337 7.989005394741568 26.52137090660068 C 0.0 **** -0.24
16272 H 38.73843192769358 7.268330785530722 27.24497103610281 H 0.0 **** 0.06
16273 H 38.29580652420606 8.598516749508235 26.1486146662526 H 0.0 **** 0.06
16274 H 39.584334462500685 7.457458649832404 25.690130572818703 H 0.0 **** 0.06
16275 H 39.8591032370538 8.629969976519135 27.00091186726442 H 0.0 **** 0.06
16276 C 46.36228729591261 90.30702269052865 78.74112103652408 C 0.0 **** -0.24
16277 H 45.455503494356435 90.083669903421 79.30337934933033 H 0.0 **** 0.06
16278 H 46.4147772238025 89.65983093846116 77.8647641164909 H 0.0 **** 0.06
16279 H 47.23368699060751 90.13399666613788 79.37331510569709 H 0.0 **** 0.06
16280 H 46.34500326857378 91.34962348917948 78.42319245417167 H 0.0 **** 0.06
16281 C 106.93208949854863 90.29876915458962 4.466118297187947 C 0.0 **** -0.24
16282 H 105.89162274422966 90.23020931011828 4.146795153971041 H 0.0 **** 0.06
16283 H 106.99813929415984 90.91989384974414 5.35871910865356 H 0.0 **** 0.06
16284 H 107.52851309188344 90.74284362282816 3.668598053585171 H 0.0 **** 0.06
16285 H 107.30945548165272 89.30022110324899 4.689379351564071 H 0.0 **** 0.06
16286 C 10.343149522902223 35.177445770642066 46.73690160615328 C 0.0 **** -0.24
16287 H 10.197444195320031 34.128985330876446 46.9952605669387 H 0.0 **** 0.06
16288 H 11.058942182765023 35.62549715911055 47.42686436327537 H 0.0 **** 0.06
16289 H 9.391155627647933 35.704709225284944 46.80533879513172 H 0.0 **** 0.06
16290 H 10.726139352396828 35.24929099640147 45.7183718602445 H 0.0 **** 0.06
16291 C 72.40360805687347 68.74695322251291 47.857161028126626 C 0.0 **** -0.24
16292 H 72.48523311345282 67.7948023264648 47.33283884057818 H 0.0 **** 0.06
16293 H 72.04548349602472 68.5723762270741 48.87159751640192 H 0.0 **** 0.06
16294 H 71.70257267331374 69.39237396738523 47.329740807856666 H 0.0 **** 0.06
16295 H 73.38164308494132 69.22608447827892 47.894342007109884 H 0.0 **** 0.06
16296 C 18.63593702791053 32.08298266403028 85.09461297340427 C 0.0 **** -0.24
16297 H 17.837550236848017 32.45007591848059 84.44912335842719 H 0.0 **** 0.06
16298 H 18.558952102222747 32.55623011693683 86.07370485971703 H 0.0 **** 0.06
16299 H 19.60136785407269 32.32240160972398 84.64963254227773 H 0.0 **** 0.06
16300 H 18.544229557750043 31.00222724718131 85.20485464180146 H 0.0 **** 0.06
16301 C 32.678208886654886 84.72182105027179 3.828136091325945 C 0.0 **** -0.24
16302 H 33.687521071591846 84.33338379368422 3.688797695936543 H 0.0 **** 0.06
16303 H 32.16555843386385 84.13508945952185 4.590596123655388 H 0.0 **** 0.06
16304 H 32.130470067355475 84.6569791892189 2.888520531506302 H 0.0 **** 0.06
16305 H 32.73165051879954 85.76358361472424 4.146940994777722 H 0.0 **** 0.06
16306 C 94.36059778405695 15.779930856491148 98.77362109504156 C 0.0 **** -0.24
16307 H 94.92674761500265 14.910928100246451 98.43733201628447 H 0.0 **** 0.06
16308 H 93.35305545251128 15.470470999386237 99.0541221706898 H 0.0 **** 0.06
16309 H 94.30545143805367 16.511215186338234 97.96711762360982 H 0.0 **** 0.06
16310 H 94.85812351332649 16.226128114797746 99.63488116132167 H 0.0 **** 0.06
16311 C 13.013691740787522 29.090781356213768 49.44431753381423 C 0.0 **** -0.24
16312 H 13.58938133792924 28.76720811514076 50.31089674292576 H 0.0 **** 0.06
16313 H 13.693958795309968 29.37198880866191 48.63947661115833 H 0.0 **** 0.06
16314 H 12.39744836394253 29.94781610992237 49.71628861639681 H 0.0 **** 0.06
16315 H 12.372584787443003 28.275215614210992 49.10910693104606 H 0.0 **** 0.06
16316 C 68.88276815016272 57.72455144599593 29.259214602738552 C 0.0 **** -0.24
16317 H 69.15140756882361 57.122259383540964 28.392140328202068 H 0.0 **** 0.06
16318 H 69.77891462738506 58.19062744967496 29.670111711745875 H 0.0 **** 0.06
16319 H 68.4249107161577 57.087362720537435 30.01631358386674 H 0.0 **** 0.06
16320 H 68.17511751163114 58.49752819225986 28.959430919351348 H 0.0 **** 0.06
16321 C 90.06854079935222 45.20337505295086 16.472560306163416 C 0.0 **** -0.24
16322 H 91.04694537418241 44.77140559856514 16.68115698441136 H 0.0 **** 0.06
16323 H 89.62238997213785 45.55858850808758 17.401752750577884 H 0.0 **** 0.06
16324 H 89.4247745814898 44.44549245246718 16.025816792050392 H 0.0 **** 0.06
16325 H 90.18057588691896 46.03834012759951 15.780727083785393 H 0.0 **** 0.06
16326 C 19.36642702182398 27.283179760774345 41.458920778625725 C 0.0 **** -0.24
16327 H 20.140673254380488 26.516080369487895 41.47794799594271 H 0.0 **** 0.06
16328 H 18.709934023157672 27.157540482125967 42.319557992601915 H 0.0 **** 0.06
16329 H 18.785015374561425 27.18913258694866 40.541727582742226 H 0.0 **** 0.06
16330 H 19.830418309178953 28.26912298358633 41.4960261815188 H 0.0 **** 0.06
16331 C 32.58897969262108 31.420815744009957 32.62436060713688 C 0.0 **** -0.24
16332 H 32.502276327711854 30.39022530341967 32.970503164106496 H 0.0 **** 0.06
16333 H 33.16119861269161 31.999465655047004 33.35045604800424 H 0.0 **** 0.06
16334 H 31.594713272596493 31.852290915943257 32.51737884594275 H 0.0 **** 0.06
16335 H 33.099338802271774 31.438786453846205 31.66138274382297 H 0.0 **** 0.06
16336 C 110.22142883809522 83.94002998104116 108.56898061237544 C 0.0 **** -0.24
16337 H 110.8438654528822 83.41864436843105 107.84158907495987 H 0.0 **** 0.06
16338 H 109.43436854804457 83.27204922652876 108.91979904838851 H 0.0 **** 0.06
16339 H 109.77261069105072 84.81640005480284 108.10026369403822 H 0.0 **** 0.06
16340 H 110.83473142650968 84.25425821398176 109.41359016216818 H 0.0 **** 0.06
16341 C 92.15794469460883 36.66825477925761 68.41231770022074 C 0.0 **** -0.24
16342 H 92.99791843557537 37.32198614389392 68.64830323931812 H 0.0 **** 0.06
16343 H 91.26200275322088 37.26936708961114 68.25829905506396 H 0.0 **** 0.06
16344 H 91.99415576912602 35.97510807451539 69.23767434131435 H 0.0 **** 0.06
16345 H 92.37905175973742 36.10608079226586 67.50401934728103 H 0.0 **** 0.06
16346 C 108.82035510328748 67.54849427846858 87.03009236706657 C 0.0 **** -0.24
16347 H 109.04735435007095 67.87971601766617 88.04374973776146 H 0.0 **** 0.06
16348 H 108.60274663078964 68.41514910811884 86.40492858883636 H 0.0 **** 0.06
16349 H 107.95438117519527 66.88743253329488 87.04977018210906 H 0.0 **** 0.06
16350 H 109.67712220914271 67.01255278642884 86.62301802567202 H 0.0 **** 0.06
16351 C 42.94581576633675 75.39044599825648 47.05767670370318 C 0.0 **** -0.24
16352 H 42.43057399115315 75.26960573042903 46.1037829101152 H 0.0 **** 0.06
16353 H 44.01248369991578 75.52898762202962 46.87988611358384 H 0.0 **** 0.06
16354 H 42.79034372560392 74.50165496816928 47.66862240066013 H 0.0 **** 0.06
16355 H 42.547086471743626 76.26269153847872 47.57642465686621 H 0.0 **** 0.06
16356 C 4.425198932406332 10.438927473645663 59.31290212107342 C 0.0 **** -0.24
16357 H 4.058426554122249 9.469762142616759 58.97274129683569 H 0.0 **** 0.06
16358 H 3.7413470009721834 11.221143060629586 58.98434769488068 H 0.0 **** 0.06
16359 H 5.414370356955146 10.620266465798423 58.892214819640174 H 0.0 **** 0.06
16360 H 4.487036296212153 10.441849753213276 60.40103001798917 H 0.0 **** 0.06
16361 C 13.279058254915952 13.937274252773975 61.93699191993778 C 0.0 **** -0.24
16362 H 13.749126811054865 14.886084455449517 61.67724490391646 H 0.0 **** 0.06
16363 H 13.993561769597605 13.313937126350211 62.47529603749405 H 0.0 **** 0.06
16364 H 12.964990635053482 13.426393528149497 61.02705943748583 H 0.0 **** 0.06
16365 H 12.411056336462252 14.123989775191827 62.56820238037045 H 0.0 **** 0.06
16366 C 32.52755887062085 49.07783630374328 94.52151987299573 C 0.0 **** -0.24
16367 H 33.23420323165837 48.26950929734676 94.3316831973321 H 0.0 **** 0.06
16368 H 31.95961552381155 49.28383837120458 93.61402868481082 H 0.0 **** 0.06
16369 H 33.0728062182161 49.9736597416987 94.82073800619582 H 0.0 **** 0.06
16370 H 31.845809358025292 48.78412137707724 95.3192854052499 H 0.0 **** 0.06
16371 C 64.97791574614507 8.595764758621499 60.91928929051802 C 0.0 **** -0.24
16372 H 64.5278053772879 8.044133064566324 60.09463129826386 H 0.0 **** 0.06
16373 H 64.361770310135 9.464058859974443 61.15419974093582 H 0.0 **** 0.06
16374 H 65.97670428573835 8.924305444037941 60.633631884740964 H 0.0 **** 0.06
16375 H 65.04499791815167 7.949693840949294 61.79438017875091 H 0.0 **** 0.06
16376 C 67.10681250626654 106.56725087427608 57.65167779740551 C 0.0 **** -0.24
16377 H 66.70554334858228 107.00158289777967 56.736088106901356 H 0.0 **** 0.06
16378 H 66.56012955852222 105.65483559846373 57.89050171975678 H 0.0 **** 0.06
16379 H 66.99942351407684 107.28043069269202 58.46911886321927 H 0.0 **** 0.06
16380 H 68.16190870189845 106.33145976089082 57.51032598117635 H 0.0 **** 0.06
16381 C 13.824305936000968 88.01266603023555 21.058018734787453 C 0.0 **** -0.24
16382 H 13.580991368614065 88.87468208957182 21.67890604344109 H 0.0 **** 0.06
16383 H 13.141096047081419 87.19532013357019 21.288534803411665 H 0.0 **** 0.06
16384 H 14.849093659338934 87.6991063933782 21.259741969143477 H 0.0 **** 0.06
16385 H 13.727358491504802 88.28316722034276 20.007053473505266 H 0.0 **** 0.06
16386 C 35.00183137529187 80.1453623988394 105.7085092851719 C 0.0 **** -0.24
16387 H 34.988833190538955 81.19712166928915 105.42286753626158 H 0.0 **** 0.06
16388 H 33.97859333540746 79.7941456912051 105.84667779834791 H 0.0 **** 0.06
16389 H 35.55561807560671 80.02822539608546 106.63958388186792 H 0.0 **** 0.06
16390 H 35.483694555604046 79.56177691534688 104.92411806438872 H 0.0 **** 0.06
16391 C 41.40321182550932 21.14881024368202 107.40757133730096 C 0.0 **** -0.24
16392 H 40.92011107237562 21.079281017083474 106.43345582492873 H 0.0 **** 0.06
16393 H 41.4829626793215 20.153432389745745 107.8458366871335 H 0.0 **** 0.06
16394 H 40.810005655906934 21.78779416466915 108.06227108314806 H 0.0 **** 0.06
16395 H 42.39976789443337 21.574733403229573 107.28872175399346 H 0.0 **** 0.06
16396 C 104.49332107870043 3.0369001823898145 17.94447028332981 C 0.0 **** -0.24
16397 H 103.839618275914 2.528307442023234 18.652696077461894 H 0.0 **** 0.06
16398 H 105.19853895264754 3.6657824158750714 18.489372752558765 H 0.0 **** 0.06
16399 H 103.89434047078925 3.6568546574032155 17.277722662049875 H 0.0 **** 0.06
16400 H 105.04132488579876 2.2974849514835256 17.360331016118792 H 0.0 **** 0.06
16401 C 101.91657018929723 48.291436559411295 53.54888952980334 C 0.0 **** -0.24
16402 H 101.89896373706031 48.53659872234971 54.611298259992196 H 0.0 **** 0.06
16403 H 100.89569254307764 48.25838253694974 53.16733739286172 H 0.0 **** 0.06
16404 H 102.3888423422994 47.319054975908784 53.40845516538358 H 0.0 **** 0.06
16405 H 102.48266244521534 49.0519455981472 53.010449817100806 H 0.0 **** 0.06
16406 C 20.57693600502597 82.45538102523983 10.045248907449974 C 0.0 **** -0.24
16407 H 21.66486360352451 82.43511617687585 9.980498521230544 H 0.0 **** 0.06
16408 H 20.217390401189448 81.49570069127714 10.414900482286669 H 0.0 **** 0.06
16409 H 20.157868581593505 82.64501961581968 9.05720669350157 H 0.0 **** 0.06
16410 H 20.268312861328752 83.24726025150481 10.728611065030577 H 0.0 **** 0.06
16411 C 80.53192964723206 34.6364719996249 108.37955402999886 C 0.0 **** -0.24
16412 H 79.55780136093466 34.7474859800249 107.90366045914338 H 0.0 **** 0.06
16413 H 80.83341208196606 35.58829930906989 108.81691755031233 H 0.0 **** 0.06
16414 H 81.26659633430347 34.3286564953555 107.63489689336929 H 0.0 **** 0.06
16415 H 80.46961488211389 33.880534840067824 109.16302940656621 H 0.0 **** 0.06
16416 C 101.99255337894276 68.91580955651389 9.619725578479546 C 0.0 **** -0.24
16417 H 102.01098171615425 69.36512096467811 10.612602903633217 H 0.0 **** 0.06
16418 H 101.26166753837164 68.10618074885633 9.601343233875994 H 0.0 **** 0.06
16419 H 102.97983388531365 68.52015993220567 9.381613627751648 H 0.0 **** 0.06
16420 H 101.71712592035524 69.67201457129045 8.884598770893575 H 0.0 **** 0.06
16421 C 73.14589749279202 77.88769859219556 8.596184180859453 C 0.0 **** -0.24
16422 H 73.81814066619472 78.15638570122017 9.411418573916109 H 0.0 **** 0.06
16423 H 72.11325176266593 78.02740123245258 8.916803470222348 H 0.0 **** 0.06
16424 H 73.30376874947933 76.84415369487118 8.324005122617095 H 0.0 **** 0.06
16425 H 73.34832417190944 78.52315716116308 7.733886905861212 H 0.0 **** 0.06
16426 C 66.38422391283306 2.646044998321969 67.39194861536872 C 0.0 **** -0.24
16427 H 66.1007070258683 3.5101607344542742 67.99307914854023 H 0.0 **** 0.06
16428 H 66.97021585491639 1.9562926133658323 68.0006726109903 H 0.0 **** 0.06
16429 H 66.97948535600395 2.976691817504758 66.54033939324604 H 0.0 **** 0.06
16430 H 65.48555518228835 2.142789996531633 67.03392809176529 H 0.0 **** 0.06
16431 C 61.89387980005836 34.674185349646265 34.21422467279153 C 0.0 **** -0.24
16432 H 61.88062387329046 35.68400472011724 34.62235427190396 H 0.0 **** 0.06
16433 H 61.62036345639211 33.96285032917996 34.99352181169499 H 0.0 **** 0.06
16434 H 62.89465131146261 34.444218025537204 33.8467083960295 H 0.0 **** 0.06
16435 H 61.18113109142048 34.6060088616268 33.39223562920719 H 0.0 **** 0.06
16436 C 52.221492993155465 96.10232639633679 82.50142739588313 C 0.0 **** -0.24
16437 H 51.46095542274903 95.37630533004612 82.21488119809351 H 0.0 **** 0.06
16438 H 53.11868012809684 95.94335812914733 81.90428000933849 H 0.0 **** 0.06
16439 H 52.46009428515733 95.97966070310869 83.5577963051177 H 0.0 **** 0.06
16440 H 51.843878583780544 97.11022176041845 82.32934886038669 H 0.0 **** 0.06
16441 C 10.298034552114785 52.00665524260219 106.85882629385767 C 0.0 **** -0.24
16442 H 9.516391255821219 52.74707464551244 107.02778658045197 H 0.0 **** 0.06
16443 H 10.540024988450313 51.97060840087505 105.79668977711987 H 0.0 **** 0.06
16444 H 9.948467341466682 51.02802194264143 107.18643172445178 H 0.0 **** 0.06
16445 H 11.188234869276215 52.28292328000771 107.42449769309263 H 0.0 **** 0.06
16446 C 8.108738003023007 9.870040941448096 68.63052952773532 C 0.0 **** -0.24
16447 H 8.190028534804185 10.672742586145787 69.36346039213858 H 0.0 **** 0.06
16448 H 8.517468162740556 10.206113289120509 67.67713726394705 H 0.0 **** 0.06
16449 H 7.060130328576065 9.600633417852976 68.50193600969703 H 0.0 **** 0.06
16450 H 8.66739229974354 9.001528667843573 68.98010007074463 H 0.0 **** 0.06
16451 C 46.29193468862087 35.8999694346945 92.96872177223463 C 0.0 **** -0.24
16452 H 47.00041034367126 35.33436212232675 93.5746692884418 H 0.0 **** 0.06
16453 H 46.18306339863352 36.90333263035569 93.38109308386333 H 0.0 **** 0.06
16454 H 45.32527288347512 35.397260448707215 92.97483043180782 H 0.0 **** 0.06
16455 H 46.66101186900147 35.965032975025395 91.94524754452038 H 0.0 **** 0.06
16456 C 29.361986558249725 101.82694147001672 84.85850993899061 C 0.0 **** -0.24
16457 H 30.09932963841527 102.4050390654833 84.30242987869025 H 0.0 **** 0.06
16458 H 29.811104714771318 101.45781004703036 85.7810768231335 H 0.0 **** 0.06
16459 H 29.028483290083386 100.98396465938009 84.25338979082255 H 0.0 **** 0.06
16460 H 28.50868935921585 102.46215727876182 85.09834019161158 H 0.0 **** 0.06
16461 C 4.629696875746788 4.431737901680279 109.19266960563844 C 0.0 **** -0.24
16462 H 5.145819601045162 5.000674920079419 108.41893272180911 H 0.0 **** 0.06
16463 H 4.423666197066922 3.4258735290816844 108.82666829622414 H 0.0 **** 0.06
16464 H 3.6910231950402306 4.9272814804909615 109.44163555159702 H 0.0 **** 0.06
16465 H 5.2581740553802945 4.373992231110321 110.08115459985639 H 0.0 **** 0.06
16466 C 102.44357185731093 44.57561984340887 46.736517198913766 C 0.0 **** -0.24
16467 H 102.39199348441456 45.5345444711443 46.22022077770928 H 0.0 **** 0.06
16468 H 102.74485721732638 43.79937503501321 46.032378779843086 H 0.0 **** 0.06
16469 H 101.46457575652433 44.33214740418768 47.14930956576549 H 0.0 **** 0.06
16470 H 103.17259696315385 44.63737696978538 47.54415087644785 H 0.0 **** 0.06
16471 C 109.80635813286332 56.039031062595825 78.02365728017446 C 0.0 **** -0.24
16472 H 109.98653417161552 56.86579799317451 78.71023920107768 H 0.0 **** 0.06
16473 H 110.75347700140725 55.705077299129925 77.60079864232236 H 0.0 **** 0.06
16474 H 109.14727383564488 56.370357539735096 77.2217013298386 H 0.0 **** 0.06
16475 H 109.33797579661677 55.215753832355176 78.5623661852913 H 0.0 **** 0.06
16476 C 47.39822447314367 26.199849525386753 45.98025818958579 C 0.0 **** -0.24
16477 H 48.050870201326575 25.343521550489356 46.151081785371396 H 0.0 **** 0.06
16478 H 47.300380395094834 26.77100883367092 46.904207529067236 H 0.0 **** 0.06
16479 H 46.415680594433155 25.850108669927238 45.66305540966617 H 0.0 **** 0.06
16480 H 47.82646902271037 26.833312877694766 45.20397507260002 H 0.0 **** 0.06
16481 C 34.851189701197825 51.82656931821511 4.910811676931644 C 0.0 **** -0.24
16482 H 34.010237924942146 51.868189806886164 5.6011865376934225 H 0.0 **** 0.06
16483 H 34.480067933742106 51.714242315906226 3.891538863333494 H 0.0 **** 0.06
16484 H 35.485549721053786 50.97663398458881 5.162247596470593 H 0.0 **** 0.06
16485 H 35.43002226643674 52.747144176503674 4.987411527294228 H 0.0 **** 0.06
16486 C 52.245869830652424 2.793469506815459 99.735719045061 C 0.0 **** -0.24
16487 H 51.33610117019788 2.269985315404729 99.44133319041153 H 0.0 **** 0.06
16488 H 52.90666306753687 2.8848304111433016 98.87405369075353 H 0.0 **** 0.06
16489 H 52.749050883334746 2.2324062020183275 100.52235775610302 H 0.0 **** 0.06
16490 H 51.98975531535956 3.78742445338721 100.10425630814912 H 0.0 **** 0.06
16491 C 68.87620770830216 40.83032895563025 69.98060002125828 C 0.0 **** -0.24
16492 H 68.45197284397807 41.6227158633846 70.5968349397076 H 0.0 **** 0.06
16493 H 68.462576790642 40.892145717418714 68.97379671030784 H 0.0 **** 0.06
16494 H 68.6308168245485 39.86090732374106 70.41589625914939 H 0.0 **** 0.06
16495 H 69.95925589280631 40.945463703482915 69.93684668148683 H 0.0 **** 0.06
16496 C 107.20642821557016 20.436239446750818 59.423541320053545 C 0.0 **** -0.24
16497 H 106.93264989616637 20.524590656469798 60.47478354508824 H 0.0 **** 0.06
16498 H 108.25545352549932 20.70442872337162 59.29748914365722 H 0.0 **** 0.06
16499 H 106.58527874995133 21.106183491529805 58.82947985625481 H 0.0 **** 0.06
16500 H 107.05149829327507 19.409174383968377 59.09339772157428 H 0.0 **** 0.06
16501 C 71.9106767124532 56.24180867837488 21.046815355713704 C 0.0 **** -0.24
16502 H 72.83246483762656 56.35458612622676 20.476042514808512 H 0.0 **** 0.06
16503 H 72.0763152713343 55.548795935592146 21.871837750027908 H 0.0 **** 0.06
16504 H 71.1264300053184 55.852647825608344 20.39687558508814 H 0.0 **** 0.06
16505 H 71.60697017693043 57.21163413150016 21.441265196599716 H 0.0 **** 0.06
16506 C 56.68908026592999 15.631217982839473 108.9242829714274 C 0.0 **** -0.24
16507 H 56.25078827249547 14.779033036597355 109.44457589276251 H 0.0 **** 0.06
16508 H 55.98293408019447 16.46198794230662 108.9306554729001 H 0.0 **** 0.06
16509 H 56.91141958534973 15.351406571860025 107.8945565362701 H 0.0 **** 0.06
16510 H 57.608616658469714 15.93113105269731 109.42650173433199 H 0.0 **** 0.06
16511 C 29.9747449262401 107.22654472397318 32.58547971839613 C 0.0 **** -0.24
16512 H 28.933151494666724 107.52546712565396 32.702668659613835 H 0.0 **** 0.06
16513 H 30.292789466952108 107.41093135008828 31.559622542459806 H 0.0 **** 0.06
16514 H 30.075865247534225 106.16526481505576 32.81303274145654 H 0.0 **** 0.06
16515 H 30.59690291395396 107.80483007494047 33.269566183438286 H 0.0 **** 0.06
16516 C 63.656213351997394 110.06507227101912 5.464318442106574 C 0.0 **** -0.24
16517 H 64.36736919338922 110.21934266528496 4.652033511095823 H 0.0 **** 0.06
16518 H 63.569973155778 110.98008967145427 6.049927948194366 H 0.0 **** 0.06
16519 H 64.00731800230207 109.25525564224034 6.104024072874893 H 0.0 **** 0.06
16520 H 62.682439627551716 109.80412177462557 5.049625406524683 H 0.0 **** 0.06
16521 C 98.61822015299386 13.21902033384356 3.1869706489385123 C 0.0 **** -0.24
16522 H 98.56095408987771 14.253033901464335 2.8468864348236025 H 0.0 **** 0.06
16523 H 97.6453765720796 12.907110345134129 3.5670196723215497 H 0.0 **** 0.06
16524 H 99.36162294964286 13.13898210016194 3.981231302268043 H 0.0 **** 0.06
16525 H 98.9057818196946 12.578685266561422 2.353874643530304 H 0.0 **** 0.06
16526 C 84.4461520913635 41.86655754700462 109.45920470068836 C 0.0 **** -0.24
16527 H 84.90760906252558 41.14627413052307 110.13374300770104 H 0.0 **** 0.06
16528 H 84.15758210595574 42.75539362030844 110.01949702280072 H 0.0 **** 0.06
16529 H 83.56212301146533 41.4213675647145 109.00191788363105 H 0.0 **** 0.06
16530 H 85.15806234973091 42.14206929352059 108.68128260790067 H 0.0 **** 0.06
16531 C 79.88544032812248 27.281589028658175 38.51455051591344 C 0.0 **** -0.24
16532 H 80.08751511313827 27.75207118898345 37.55314479057006 H 0.0 **** 0.06
16533 H 79.8015570992677 28.05049636581191 39.2837422563035 H 0.0 **** 0.06
16534 H 80.70178148672585 26.603658459141286 38.76617334579248 H 0.0 **** 0.06
16535 H 78.95251984905795 26.721559003247933 38.45785451762504 H 0.0 **** 0.06
16536 C 105.33311290064569 58.67135488604157 37.75498411035056 C 0.0 **** -0.24
16537 H 104.99861991154177 59.587402793871135 38.24023901460322 H 0.0 **** 0.06
16538 H 104.4659851779459 58.109564639157924 37.40423193907612 H 0.0 **** 0.06
16539 H 105.89362239946357 58.06604941640245 38.46807819286863 H 0.0 **** 0.06
16540 H 105.9718573981371 58.91984167156109 36.908743953232396 H 0.0 **** 0.06
16541 C 108.08668786198051 24.147520983188315 90.28978833546357 C 0.0 **** -0.24
16542 H 108.8963757086989 24.51266871752034 90.92213830939008 H 0.0 **** 0.06
16543 H 107.14878020518374 24.18416023013816 90.84372652022095 H 0.0 **** 0.06
16544 H 108.29298422180337 23.119670826566363 89.9923953836691 H 0.0 **** 0.06
16545 H 108.00916682803154 24.774727764255772 89.40151253853197 H 0.0 **** 0.06
16546 C 80.67245670440775 88.51711441471645 67.51081902360333 C 0.0 **** -0.24
16547 H 81.56733561782312 88.64564845422319 66.90216193852021 H 0.0 **** 0.06
16548 H 80.56044209074042 87.46556176076012 67.77572371077122 H 0.0 **** 0.06
16549 H 79.7996070490575 88.84534526223803 66.94576348540033 H 0.0 **** 0.06
16550 H 80.76232663557752 89.11387019275583 68.41857156365649 H 0.0 **** 0.06
16551 C 69.20435329034156 23.004832651930244 94.10019334758823 C 0.0 **** -0.24
16552 H 68.7106003859382 22.816861921758548 93.14668256312143 H 0.0 **** 0.06
16553 H 69.7948939032421 22.13294740246527 94.38034079623327 H 0.0 **** 0.06
16554 H 68.45371620554283 23.198546439076264 94.86576477861621 H 0.0 **** 0.06
16555 H 69.8577965208703 23.872547591468265 94.00406576040822 H 0.0 **** 0.06
16556 C 65.14692312006707 88.05212422823094 18.567199430068086 C 0.0 **** -0.24
16557 H 65.48848637180063 88.44023467571904 19.526426474448073 H 0.0 **** 0.06
16558 H 64.05715161786594 88.05679582544096 18.540647738438537 H 0.0 **** 0.06
16559 H 65.509663482355 87.0318931577799 18.438157674898292 H 0.0 **** 0.06
16560 H 65.53337576183202 88.67945267445663 17.763691416051728 H 0.0 **** 0.06
16561 C 101.55362856895434 42.05410511965927 35.510885138672634 C 0.0 **** -0.24
16562 H 101.74472380732742 42.45952152450343 34.51713471915704 H 0.0 **** 0.06
16563 H 100.47882968985652 41.93918678985674 35.65558462313285 H 0.0 **** 0.06
16564 H 101.95109847291256 42.73451734739122 36.26294798784963 H 0.0 **** 0.06
16565 H 102.03945859343872 41.08380540144764 35.605760299026315 H 0.0 **** 0.06
16566 C 44.06380186494209 21.356919184791163 10.670104361985608 C 0.0 **** -0.24
16567 H 43.722393863240654 20.33842727857512 10.488270682149988 H 0.0 **** 0.06
16568 H 43.817833224950846 21.982033474750004 9.811532699244282 H 0.0 **** 0.06
16569 H 45.1429373748112 21.35637136492198 10.82202525733311 H 0.0 **** 0.06
16570 H 43.571923320556834 21.751169157232003 11.559960105805914 H 0.0 **** 0.06
16571 C 22.338739516378222 64.47468410499584 42.53440615720888 C 0.0 **** -0.24
16572 H 23.048796772205232 64.69748807348657 41.73761769931633 H 0.0 **** 0.06
16573 H 22.110359878208893 63.409004690865004 42.528852168147324 H 0.0 **** 0.06
16574 H 21.423262219460725 65.04411816057137 42.37383247090514 H 0.0 **** 0.06
16575 H 22.774234130992053 64.74889008621165 43.49519085978807 H 0.0 **** 0.06
16576 C 89.6214483132743 110.55314877538055 18.021808225844808 C 0.0 **** -0.24
16577 H 90.43989022080757 110.57727112120654 17.3033017076246 H 0.0 **** 0.06
16578 H 88.85988782478267 109.85122447772633 17.68216042148569 H 0.0 **** 0.06
16579 H 89.18622898229108 111.54833848692107 18.109934712968823 H 0.0 **** 0.06
16580 H 90.00050849400009 110.23460644319445 18.993609628776824 H 0.0 **** 0.06
16581 C 69.22087113088872 75.03641618042667 6.1408377926704 C 0.0 **** -0.24
16582 H 68.59250391659965 75.02670134424741 5.250537859410326 H 0.0 **** 0.06
16583 H 70.23637744571137 75.32156390026893 5.865622523425701 H 0.0 **** 0.06
16584 H 69.23145901628624 74.04205157887577 6.588502540764571 H 0.0 **** 0.06
16585 H 68.82280131607666 75.75365281314208 6.858784711833907 H 0.0 **** 0.06
16586 C 100.3122118055498 2.3868865263855863 31.97700125458232 C 0.0 **** -0.24
16587 H 99.33959984075337 2.4779072799039117 32.461073505793195 H 0.0 **** 0.06
16588 H 100.8267923824859 1.5051830921683207 32.357747322734525 H 0.0 **** 0.06
16589 H 100.90732665869365 3.2757829627077495 32.18751299902425 H 0.0 **** 0.06
16590 H 100.17244770802132 2.2899213446997218 30.89937859884367 H 0.0 **** 0.06
16591 C 97.96338863289351 89.15326994732358 52.5531500791995 C 0.0 **** -0.24
16592 H 97.52540304191479 88.98236339889324 51.5705880081627 H 0.0 **** 0.06
16593 H 97.23464645645869 88.90609052210904 53.32439507754282 H 0.0 **** 0.06
16594 H 98.24984854689745 90.20123547611333 52.645614867291556 H 0.0 **** 0.06
16595 H 98.84605460088389 88.52385973777905 52.67183188556254 H 0.0 **** 0.06
16596 C 103.8368804065031 97.25511004532098 20.1246193350443 C 0.0 **** -0.24
16597 H 103.96528420603835 98.26519251893215 19.736283700299694 H 0.0 **** 0.06
16598 H 103.22408764160917 97.28731236630176 21.025000213407566 H 0.0 **** 0.06
16599 H 104.81206636298145 96.83154834198565 20.36368112077076 H 0.0 **** 0.06
16600 H 103.34730022694367 96.63680165061629 19.372922816979298 H 0.0 **** 0.06
16601 C 81.47323185688441 38.7451892138408 32.85836150691808 C 0.0 **** -0.24
16602 H 82.01301231104617 37.86391028776288 33.20255064976019 H 0.0 **** 0.06
16603 H 82.17829511232321 39.55934206818078 32.68844769362963 H 0.0 **** 0.06
16604 H 80.74674245181865 39.04537295645545 33.61375850046369 H 0.0 **** 0.06
16605 H 80.95509653324444 38.51296144950558 31.927565171783797 H 0.0 **** 0.06
16606 C 108.9518353318023 25.411750726414834 6.2802039230414834 C 0.0 **** -0.24
16607 H 109.72585709666714 26.153507853035595 6.080342815049278 H 0.0 **** 0.06
16608 H 109.39715850675083 24.546371956835436 6.7724199889503325 H 0.0 **** 0.06
16609 H 108.4962998593528 25.10090712918636 5.339936179212785 H 0.0 **** 0.06
16610 H 108.1905327502696 25.846130752528186 6.926470891682641 H 0.0 **** 0.06
16611 C 10.777471064301466 38.238004145323416 79.3140205141238 C 0.0 **** -0.24
16612 H 11.405015015124434 37.779057247983474 80.07824632251311 H 0.0 **** 0.06
16613 H 10.368671360496961 37.46194194955564 78.66659482360944 H 0.0 **** 0.06
16614 H 11.375253468127369 38.92958420799455 78.72021418801836 H 0.0 **** 0.06
16615 H 9.9617027641944 38.78015617264873 79.79191796757613 H 0.0 **** 0.06
16616 C 2.32140514888043 9.804402562518959 24.214594011458658 C 0.0 **** -0.24
16617 H 1.7750506733403881 9.046120756694137 23.654867153301325 H 0.0 **** 0.06
16618 H 1.8190948529664155 10.76716294130253 24.10898309445848 H 0.0 **** 0.06
16619 H 3.3381898583048297 9.880784512882855 23.827124696079636 H 0.0 **** 0.06
16620 H 2.3545147790538863 9.524759044015894 25.26731617683882 H 0.0 **** 0.06
16621 C 1.6104765738064941 56.16504541710873 47.850140554374775 C 0.0 **** -0.24
16622 H 1.1776852061821046 55.25560451544487 48.265649347049816 H 0.0 **** 0.06
16623 H 1.1208562647109943 56.401567757199814 46.90524538176888 H 0.0 **** 0.06
16624 H 2.6771931780379816 56.015752762658735 47.67956159889394 H 0.0 **** 0.06
16625 H 1.4666698907941509 56.98856600181671 48.55029929769779 H 0.0 **** 0.06
16626 C 79.92216750808933 61.85044656245691 61.587894902136554 C 0.0 **** -0.24
16627 H 80.71395580348758 61.40071908548961 62.18635056867501 H 0.0 **** 0.06
16628 H 80.25974974436343 62.81405466146407 61.20443373125376 H 0.0 **** 0.06
16629 H 79.036914032992 61.99555182699319 62.20744837247456 H 0.0 **** 0.06
16630 H 79.67819694803825 61.19243105614822 60.754365268829275 H 0.0 **** 0.06
16631 C 49.84264582786221 38.19085050934976 62.73536135841135 C 0.0 **** -0.24
16632 H 50.346557253829076 39.15569510121159 62.67702673943275 H 0.0 **** 0.06
16633 H 49.53206517803869 37.88202929014841 61.73774279674312 H 0.0 **** 0.06
16634 H 48.96618381755775 38.27772639090415 63.378947987933984 H 0.0 **** 0.06
16635 H 50.5246565656783 37.44858524355493 63.15043770641371 H 0.0 **** 0.06
16636 C 98.1848264946784 20.412441949991262 19.57174446793738 C 0.0 **** -0.24
16637 H 97.29305542034867 20.93023631234064 19.925815241624036 H 0.0 **** 0.06
16638 H 99.04829706257902 21.07257112851869 19.662952234368618 H 0.0 **** 0.06
16639 H 98.05041400453807 20.13134717100968 18.528030112879804 H 0.0 **** 0.06
16640 H 98.34766354305752 19.517090577297438 20.171854255303202 H 0.0 **** 0.06
16641 C 32.05037714911947 41.47093346097989 83.30597949657027 C 0.0 **** -0.24
16642 H 31.066323222313997 41.160188591480164 82.9524412128356 H 0.0 **** 0.06
16643 H 32.80751116600089 41.169488151155804 82.58226371910587 H 0.0 **** 0.06
16644 H 32.25592591937624 40.999001728087535 84.26697631942488 H 0.0 **** 0.06
16645 H 32.06856274079337 42.55415706599251 83.42245093389653 H 0.0 **** 0.06
16646 C 78.0868822840498 85.60960284064846 79.53646652281856 C 0.0 **** -0.24
16647 H 77.97335327766513 86.6804712709175 79.36849423495175 H 0.0 **** 0.06
16648 H 79.11075610613531 85.3960319363312 79.84294096662097 H 0.0 **** 0.06
16649 H 77.86382938796231 85.07229031694698 78.6135274682932 H 0.0 **** 0.06
16650 H 77.39794585278605 85.28963358784462 80.31839428094085 H 0.0 **** 0.06
16651 C 31.576114399599504 93.6550124320651 2.2471282944231294 C 0.0 **** -0.24
16652 H 32.45770276096661 93.16239257615457 1.8387886127899513 H 0.0 **** 0.06
16653 H 31.514313748527258 93.45914204683719 3.318071922206805 H 0.0 **** 0.06
16654 H 30.68388037259109 93.26939569190675 1.7553765002358972 H 0.0 **** 0.06
16655 H 31.648906399108398 94.7295251256191 2.077586104873153 H 0.0 **** 0.06
16656 C 94.32243544529241 27.61869762573008 64.70739771060141 C 0.0 **** -0.24
16657 H 93.3621301487335 28.068594334145246 64.96046973177471 H 0.0 **** 0.06
16658 H 94.78154442618167 28.177539415632076 63.892213986197476 H 0.0 **** 0.06
16659 H 94.16789876183088 26.58499486602836 64.39950210231922 H 0.0 **** 0.06
16660 H 94.97580782802066 27.64493390749191 65.57935694614196 H 0.0 **** 0.06
16661 C 102.42758534832915 93.33774349707375 95.32309284710044 C 0.0 **** -0.24
16662 H 102.22164894049129 93.95654273754032 96.19689572274143 H 0.0 **** 0.06
16663 H 101.49286054104418 93.11414795205118 94.80867248368037 H 0.0 **** 0.06
16664 H 102.90016266050088 92.40767742491374 95.64074135575717 H 0.0 **** 0.06
16665 H 103.09585252441362 93.87296487810823 94.64919838957024 H 0.0 **** 0.06
16666 C 54.555572450593644 65.2132542779246 31.928901292477235 C 0.0 **** -0.24
16667 H 54.60349820075197 64.5644595370798 32.802652496551616 H 0.0 **** 0.06
16668 H 53.51436163161617 65.34792496773494 31.633470015202306 H 0.0 **** 0.06
16669 H 55.11068430566752 64.75972009904406 31.107924255151204 H 0.0 **** 0.06
16670 H 54.99254979921503 66.18255139917272 32.17249871847821 H 0.0 **** 0.06
16671 C 56.452586882410685 18.87822738540902 53.378786764933466 C 0.0 **** -0.24
16672 H 55.62276590948008 18.41453449010598 53.913542651001436 H 0.0 **** 0.06
16673 H 56.63379727758118 19.875009520772522 53.78433459043415 H 0.0 **** 0.06
16674 H 56.20380020060401 18.955881875387718 52.320690045196635 H 0.0 **** 0.06
16675 H 57.34785872204253 18.268532279831646 53.49841918315299 H 0.0 **** 0.06
16676 C 97.79688428228606 42.170660004949895 66.09144597146668 C 0.0 **** -0.24
16677 H 97.90398528870243 43.18661158751644 65.7128664815571 H 0.0 **** 0.06
16678 H 98.3717440128981 42.062806604693805 67.01117128934015 H 0.0 **** 0.06
16679 H 98.16690310468726 41.46491940169415 65.34735388601412 H 0.0 **** 0.06
16680 H 96.7449755615437 41.966786132194244 66.29355797112721 H 0.0 **** 0.06
16681 C 39.47449075477812 11.081344849944202 6.411232249115585 C 0.0 **** -0.24
16682 H 40.08778947755107 10.272860514075987 6.014351351902604 H 0.0 **** 0.06
16683 H 39.539715518677646 11.08639132813002 7.499904405741049 H 0.0 **** 0.06
16684 H 38.437653702012206 10.932388130588393 6.109237928798663 H 0.0 **** 0.06
16685 H 39.833245265896444 12.03462453198621 6.021286290241235 H 0.0 **** 0.06
16686 C 32.211401235184006 85.84984080669268 98.65011134600162 C 0.0 **** -0.24
16687 H 31.35571770632236 85.66573199294183 99.3001570385737 H 0.0 **** 0.06
16688 H 31.98810846549327 85.4914897512566 97.64517821636824 H 0.0 **** 0.06
16689 H 33.08243518377255 85.32136848933716 99.03869035461231 H 0.0 **** 0.06
16690 H 32.420320792546754 86.91824006547368 98.61721333911464 H 0.0 **** 0.06
16691 C 87.02721579264983 2.975206778019867 94.04504163581475 C 0.0 **** -0.24
16692 H 86.95991690739936 1.9022228978657267 94.22360301156351 H 0.0 **** 0.06
16693 H 88.07675460051168 3.270151513693804 93.99716928587839 H 0.0 **** 0.06
16694 H 86.53670327182502 3.510287847318125 94.85806466060421 H 0.0 **** 0.06
16695 H 86.53795856030088 3.218074700610998 93.10270455345966 H 0.0 **** 0.06
16696 C 72.78798442586957 12.157364696240535 100.47365322089944 C 0.0 **** -0.24
16697 H 71.72567142316632 12.359192555661053 100.33563387154399 H 0.0 **** 0.06
16698 H 72.96054671393452 11.805762394657023 101.49115940816553 H 0.0 **** 0.06
16699 H 73.3567585914828 13.072490349080852 100.30442026000253 H 0.0 **** 0.06
16700 H 73.10787451676565 11.393724032407704 99.76561160307568 H 0.0 **** 0.06
16701 C 7.410751884415788 16.84629540015197 48.05955070275209 C 0.0 **** -0.24
16702 H 6.833642991384579 16.506576532087816 48.91956299752201 H 0.0 **** 0.06
16703 H 7.637642525032277 17.907030197972443 48.170636713037595 H 0.0 **** 0.06
16704 H 6.831437666260172 16.692076840442226 47.149328535520276 H 0.0 **** 0.06
16705 H 8.340614522327314 16.28040853474363 47.998425524553795 H 0.0 **** 0.06
16706 C 84.27910637043765 53.54421540985371 21.503399098576267 C 0.0 **** -0.24
16707 H 83.42533336315638 53.02450113053635 21.067399668313072 H 0.0 **** 0.06
16708 H 83.92396194473591 54.29106639161244 22.214251992074338 H 0.0 **** 0.06
16709 H 84.84704889022679 54.03557002620267 20.714069881453028 H 0.0 **** 0.06
16710 H 84.91684082522958 52.82606581719466 22.018493888528212 H 0.0 **** 0.06
16711 C 30.924138983596748 71.92359667410591 46.286184658304336 C 0.0 **** -0.24
16712 H 30.613786755649528 71.31802071620558 47.13763106327551 H 0.0 **** 0.06
16713 H 30.614856374271426 72.957241135848 46.44428011915727 H 0.0 **** 0.06
16714 H 30.46015739993237 71.53964738805712 45.37863593841696 H 0.0 **** 0.06
16715 H 32.008603116567315 71.88001231921851 46.186426597968726 H 0.0 **** 0.06
16716 C 1.0503173572721778 51.42646189718039 43.814019798664944 C 0.0 **** -0.24
16717 H 1.9262323469125988 51.00563607765878 43.31992232853392 H 0.0 **** 0.06
16718 H 1.3492878614997608 52.289852799326354 44.40913202663876 H 0.0 **** 0.06
16719 H 0.6036132879346212 50.67376358194997 44.463551512171435 H 0.0 **** 0.06
16720 H 0.3235325879849569 51.73680462237871 43.06339871136156 H 0.0 **** 0.06
16721 C 12.90105267136974 28.61240451511864 36.729986444436236 C 0.0 **** -0.24
16722 H 13.75584854318808 29.10370971949223 36.26386091717666 H 0.0 **** 0.06
16723 H 13.195586531658392 28.21745364211526 37.70233995532175 H 0.0 **** 0.06
16724 H 12.558315061820423 27.797159844274105 36.09340750165745 H 0.0 **** 0.06
16725 H 12.09472494314582 29.334853144439165 36.85981844057292 H 0.0 **** 0.06
16726 C 20.133819293400904 22.804344523045412 10.235968818253207 C 0.0 **** -0.24
16727 H 19.910423319032077 22.930001945352853 11.29483147292601 H 0.0 **** 0.06
16728 H 20.673010397890664 23.6799727840185 9.872261634833778 H 0.0 **** 0.06
16729 H 19.203982457557572 22.692617605903585 9.679199355501925 H 0.0 **** 0.06
16730 H 20.750106895174213 21.915580823614338 10.09815212646714 H 0.0 **** 0.06
16731 C 5.085913933866607 72.8821284170694 32.70063954847155 C 0.0 **** -0.24
16732 H 5.3701427495539065 73.87867906739996 32.36301623367479 H 0.0 **** 0.06
16733 H 4.13544864514688 72.93615986344955 33.2320434431224 H 0.0 **** 0.06
16734 H 5.854659439929321 72.49164737457721 33.36757330931084 H 0.0 **** 0.06
16735 H 4.984123969489872 72.22225019963358 31.838072241197402 H 0.0 **** 0.06
16736 C 89.22438053104443 39.550449024184616 36.71626211304971 C 0.0 **** -0.24
16737 H 90.0198289033138 39.354644238052 35.99791188203454 H 0.0 **** 0.06
16738 H 88.70140169848713 38.62021126836521 36.94114576398124 H 0.0 **** 0.06
16739 H 88.52167143659312 40.26914011148102 36.29499406848356 H 0.0 **** 0.06
16740 H 89.6533825907419 39.956614314513615 37.63274657251401 H 0.0 **** 0.06
16741 C 33.09134358169251 44.58045011102249 92.30605412955245 C 0.0 **** -0.24
16742 H 33.84338231299415 43.82543466665735 92.53484038284591 H 0.0 **** 0.06
16743 H 32.12902048885155 44.2694479976793 92.71441763793374 H 0.0 **** 0.06
16744 H 33.008272962528935 44.69442378849387 91.22597314991874 H 0.0 **** 0.06
16745 H 33.38451134358539 45.53097127977203 92.75061216963739 H 0.0 **** 0.06
16746 C 13.84714378137192 50.68090643399381 73.25684434750627 C 0.0 **** -0.24
16747 H 13.750240543083606 50.209681437414645 74.23484766463072 H 0.0 **** 0.06
16748 H 12.854753813420615 50.86902435533909 72.84576213324486 H 0.0 **** 0.06
16749 H 14.399320742501938 50.02103934038206 72.58792526587494 H 0.0 **** 0.06
16750 H 14.382631164025987 51.62511419561389 73.35975079055842 H 0.0 **** 0.06
16751 C 17.421165367102248 2.6187767536587216 94.94112216045392 C 0.0 **** -0.24
16752 H 18.010620298517466 1.7872190391354081 94.55660776881149 H 0.0 **** 0.06
16753 H 18.043922214519483 3.236661701217443 95.58893146170936 H 0.0 **** 0.06
16754 H 16.575733435284263 2.231634322017811 95.51153553140463 H 0.0 **** 0.06
16755 H 17.053455462326525 3.2189046849453007 94.10957326819684 H 0.0 **** 0.06
16756 C 88.38688309507093 48.88863408985941 19.884902300280658 C 0.0 **** -0.24
16757 H 88.29028800700009 49.919556553410104 20.223515544171903 H 0.0 **** 0.06
16758 H 89.39570243555836 48.7239782750804 19.505636217865145 H 0.0 **** 0.06
16759 H 87.66517052990652 48.69833923394678 19.09081190827885 H 0.0 **** 0.06
16760 H 88.19698086672605 48.21271335562813 20.71837036281329 H 0.0 **** 0.06
16761 C 22.992375541247462 24.06428430724071 11.96469103111696 C 0.0 **** -0.24
16762 H 22.795058634976336 24.94374483606873 11.351992954989942 H 0.0 **** 0.06
16763 H 22.79281902880455 23.16473666108564 11.381759647177255 H 0.0 **** 0.06
16764 H 22.346043321695188 24.080730757784266 12.842072871337251 H 0.0 **** 0.06
16765 H 24.036316190034384 24.06851073608368 12.280676584649456 H 0.0 **** 0.06
16766 C 36.12438591123865 108.7419048898198 16.917257991501145 C 0.0 **** -0.24
16767 H 35.28529912601607 108.15837609591904 17.295062445454704 H 0.0 **** 0.06
16768 H 36.72208525483478 109.10318682298112 17.754964182550964 H 0.0 **** 0.06
16769 H 35.74778868802659 109.59056035242463 16.346368193279858 H 0.0 **** 0.06
16770 H 36.74239150112305 108.11593403628979 16.273981778160646 H 0.0 **** 0.06
16771 C 28.920687328657323 25.141636972549918 96.6423524972912 C 0.0 **** -0.24
16772 H 28.86155830300595 24.107479819080964 96.98028507258148 H 0.0 **** 0.06
16773 H 29.77552641431396 25.628731250901296 97.11062911719837 H 0.0 **** 0.06
16774 H 28.00634353229202 25.66751609150998 96.91952459400106 H 0.0 **** 0.06
16775 H 29.03690256415979 25.16315998722706 95.55878131351082 H 0.0 **** 0.06
16776 C 24.039248851613024 31.760427178124914 68.98345245085932 C 0.0 **** -0.24
16777 H 23.083466424634366 32.27609775867688 69.06941449028824 H 0.0 **** 0.06
16778 H 24.200983335721673 31.466808209277204 67.94650377037988 H 0.0 **** 0.06
16779 H 24.031089343814244 30.872465226687254 69.61532721079624 H 0.0 **** 0.06
16780 H 24.84191564388584 32.42545175150978 69.30263121653229 H 0.0 **** 0.06
16781 C 55.128291834225045 2.252850328376338 96.7830367105224 C 0.0 **** -0.24
16782 H 55.5830776659251 1.593163602757782 97.52118909447455 H 0.0 **** 0.06
16783 H 54.932144415481915 3.225466595811822 97.23692836878735 H 0.0 **** 0.06
16784 H 54.19087596438897 1.8188610601464994 96.43557805146014 H 0.0 **** 0.06
16785 H 55.80696592592397 2.3763427936809833 95.93818412185021 H 0.0 **** 0.06
16786 C 50.43500607662917 7.558628535441999 105.68105109197869 C 0.0 **** -0.24
16787 H 50.271886353917836 6.64061021253036 105.11655924763332 H 0.0 **** 0.06
16788 H 49.590333228476254 8.231990958173451 105.53170379908565 H 0.0 **** 0.06
16789 H 51.34986295676719 8.0400603670208 105.33514788791521 H 0.0 **** 0.06
16790 H 50.52792266949589 7.320534072559914 106.74130452089858 H 0.0 **** 0.06
16791 C 36.03839228501096 73.03703803027658 18.971658095745056 C 0.0 **** -0.24
16792 H 36.75768227644335 72.91306493361483 19.78101728460561 H 0.0 **** 0.06
16793 H 35.06732342729981 72.65683003421839 19.28845278399487 H 0.0 **** 0.06
16794 H 36.37834541378493 72.48323425610481 18.095972060958843 H 0.0 **** 0.06
16795 H 35.95200955578065 74.09436471717096 18.721788090156366 H 0.0 **** 0.06
16796 C 48.17733446909139 104.5487124213825 53.00962131976297 C 0.0 **** -0.24
16797 H 47.46760390796308 104.89067481069821 53.76322599760815 H 0.0 **** 0.06
16798 H 48.80867681903612 103.76684115335127 53.43443775532249 H 0.0 **** 0.06
16799 H 48.79943624883262 105.38555677440928 52.69070803593754 H 0.0 **** 0.06
16800 H 47.634539332368604 104.15231330242193 52.15180730452211 H 0.0 **** 0.06
16801 C 31.18956214707117 31.27686307401524 8.685504103787054 C 0.0 **** -0.24
16802 H 31.294006984766213 31.283578367360235 7.600068723931088 H 0.0 **** 0.06
16803 H 31.541632658593187 30.322675123034003 9.077643678290826 H 0.0 **** 0.06
16804 H 30.141403245147842 31.41458269357679 8.949079335680437 H 0.0 **** 0.06
16805 H 31.781850772516748 32.08643319093579 9.112300489579411 H 0.0 **** 0.06
16806 C 99.51907415460403 38.16241901348285 106.55338999601315 C 0.0 **** -0.24
16807 H 99.78044673014233 37.43062021686309 105.7887981787261 H 0.0 **** 0.06
16808 H 100.42350087235991 38.66478207062156 106.89898294688851 H 0.0 **** 0.06
16809 H 99.04109464528563 37.65690007756562 107.39235835941224 H 0.0 **** 0.06
16810 H 98.83358186566238 38.89700289137607 106.13275298292834 H 0.0 **** 0.06
16811 C 67.53313119004812 96.3207137424223 33.15596760095565 C 0.0 **** -0.24
16812 H 68.44727757877683 96.12148184612687 33.71554045784994 H 0.0 **** 0.06
16813 H 66.83364673630399 96.86801742006116 33.78666232857025 H 0.0 **** 0.06
16814 H 67.0837167219222 95.37732530021304 32.8471868139589 H 0.0 **** 0.06
16815 H 67.77075356368346 96.91560431852264 32.27371731159141 H 0.0 **** 0.06
16816 C 66.17458593186154 95.38654636149766 1.270009381890219 C 0.0 **** -0.24
16817 H 66.07451379278808 95.72985237129205 2.299810962578647 H 0.0 **** 0.06
16818 H 65.31222094730583 94.77504825033157 1.0060181232783947 H 0.0 **** 0.06
16819 H 67.08415820756431 94.79430227855596 1.1722856424187142 H 0.0 **** 0.06
16820 H 66.22802789435696 96.24783515723533 0.6039078040512607 H 0.0 **** 0.06
16821 C 68.93892028992224 58.038260703826836 38.36802594329009 C 0.0 **** -0.24
16822 H 69.03564837048927 59.077759157200035 38.05346050658236 H 0.0 **** 0.06
16823 H 68.3754275742704 57.48411624904173 37.617161355454606 H 0.0 **** 0.06
16824 H 68.41468733826851 57.99556315624096 39.32198893656262 H 0.0 **** 0.06
16825 H 69.93045640206127 57.59893214437807 38.477118952042304 H 0.0 **** 0.06
16826 C 66.43712212091611 50.361209445614065 69.33979461377857 C 0.0 **** -0.24
16827 H 65.78831929733758 50.08249755560314 70.17033138362396 H 0.0 **** 0.06
16828 H 65.99330208947396 50.02457761800599 68.40306919697844 H 0.0 **** 0.06
16829 H 67.41320933007455 49.89221468285183 69.46881580219123 H 0.0 **** 0.06
16830 H 66.5548881925107 51.44484352139443 69.3189596128936 H 0.0 **** 0.06
16831 C 28.782588537330696 9.019243838864295 68.41477250663475 C 0.0 **** -0.24
16832 H 28.153860067756668 8.608026218382923 69.2044441509364 H 0.0 **** 0.06
16833 H 29.45595148145867 8.245063219692105 68.0452275050302 H 0.0 **** 0.06
16834 H 29.366700546729234 9.850014423528377 68.811849545618 H 0.0 **** 0.06
16835 H 28.153688995661753 9.375147818803027 67.59815845917568 H 0.0 **** 0.06
16836 C 44.048644778019536 93.3665452353161 15.612269154121797 C 0.0 **** -0.24
16837 H 44.83362054839614 93.84176901628365 15.024519974544042 H 0.0 **** 0.06
16838 H 43.585420335057734 94.10604786542383 16.2645816938462 H 0.0 **** 0.06
16839 H 44.481017789971304 92.56874261031055 16.215561161667566 H 0.0 **** 0.06
16840 H 43.296023432340235 92.94936461371566 14.94277815295153 H 0.0 **** 0.06
16841 C 92.58403439976729 12.962720776083728 60.668019387968585 C 0.0 **** -0.24
16842 H 92.56642507293036 12.800986384483878 59.58978626018883 H 0.0 **** 0.06
16843 H 92.42759067856258 12.012139134967285 61.179642026927155 H 0.0 **** 0.06
16844 H 91.79151452376088 13.658228432001081 60.943204871754034 H 0.0 **** 0.06
16845 H 93.54919616156961 13.376993498333803 60.95818757961334 H 0.0 **** 0.06
16846 C 2.758610342952693 38.69514918229845 87.0533400699052 C 0.0 **** -0.24
16847 H 2.20804781563902 38.13419264542722 86.29858556278207 H 0.0 **** 0.06
16848 H 2.7745097454278778 38.129532581194894 87.98527828167859 H 0.0 **** 0.06
16849 H 2.270863916237758 39.65560689184338 87.21965344828902 H 0.0 **** 0.06
16850 H 3.780131388294521 38.86092970483202 86.71089107813947 H 0.0 **** 0.06
16851 C 6.7033804646406026 4.923602983859439 68.29510929377726 C 0.0 **** -0.24
16852 H 6.095115671254945 5.7785861704112165 67.99930117549414 H 0.0 **** 0.06
16853 H 6.0519881410265555 4.10630691027707 68.60677572909526 H 0.0 **** 0.06
16854 H 7.351097718173207 5.207611212115381 69.12359426122265 H 0.0 **** 0.06
16855 H 7.312353175719963 4.601469801640789 67.450834961952 H 0.0 **** 0.06
16856 C 65.25913203487525 31.77898840433815 29.613867979134966 C 0.0 **** -0.24
16857 H 64.24452341444562 32.17113068764763 29.694357657511887 H 0.0 **** 0.06
16858 H 65.21838662810222 30.716208052719196 29.376081419749084 H 0.0 **** 0.06
16859 H 65.7795549019515 31.92081217064134 30.560765948154483 H 0.0 **** 0.06
16860 H 65.79102615817723 32.308602412864246 28.823896243604906 H 0.0 **** 0.06
16861 C 89.32019874356864 86.43337563868101 69.24614341972267 C 0.0 **** -0.24
16862 H 88.68173452570655 85.616696463574 68.91118635734188 H 0.0 **** 0.06
16863 H 89.14568927737083 86.62067515443177 70.30569524645138 H 0.0 **** 0.06
16864 H 89.08973957915593 87.33229010719089 68.67534220491768 H 0.0 **** 0.06
16865 H 90.36579677047219 86.16329187680704 69.09245429556535 H 0.0 **** 0.06
16866 C 35.712203264989796 2.9374708702032706 61.062913302083956 C 0.0 **** -0.24
16867 H 35.550230103308536 2.8795391216035284 62.138840016268645 H 0.0 **** 0.06
16868 H 35.325408188712345 2.0350373535439417 60.5889016165916 H 0.0 **** 0.06
16869 H 36.779399684342025 3.026861442690887 60.86052296708817 H 0.0 **** 0.06
16870 H 35.19261461264307 3.809191043017165 60.66370112595233 H 0.0 **** 0.06
16871 C 22.98634436384785 74.27936006512414 49.662053696639234 C 0.0 **** -0.24
16872 H 23.45860331528374 74.6437655022476 50.57440116156389 H 0.0 **** 0.06
16873 H 22.04876902899008 73.78141994420997 49.91310340392144 H 0.0 **** 0.06
16874 H 23.650615577655287 73.57239033717885 49.165378478541896 H 0.0 **** 0.06
16875 H 22.78505787193248 75.11815382316674 48.99661139921339 H 0.0 **** 0.06
16876 C 102.00180069040408 49.47293340535275 5.43734327902539 C 0.0 **** -0.24
16877 H 101.79272041464696 50.483855818967385 5.784582318841233 H 0.0 **** 0.06
16878 H 101.15154228857295 48.82716103146247 5.662457806507923 H 0.0 **** 0.06
16879 H 102.89049097037167 49.09179891933973 5.941048405401309 H 0.0 **** 0.06
16880 H 102.17267736342345 49.48651629720805 4.3608594638250295 H 0.0 **** 0.06
16881 C 34.87287784901588 110.06035046367506 10.138128375154107 C 0.0 **** -0.24
16882 H 35.20535426815951 109.54182334682244 9.238494102642823 H 0.0 **** 0.06
16883 H 35.04889929640734 109.42708398697012 11.00757690364346 H 0.0 **** 0.06
16884 H 33.80911306829887 110.28144862975938 10.05717301518241 H 0.0 **** 0.06
16885 H 35.43016272305721 110.99055832167222 10.247103707573968 H 0.0 **** 0.06
16886 C 51.90105096899624 89.1881323345776 0.29428639271331747 C 0.0 **** -0.24
16887 H 52.77596207652435 89.36449025830092 -0.33189185428793166 H 0.0 **** 0.06
16888 H 51.00130098455029 89.47627611207766 -0.24909546896451218 H 0.0 **** 0.06
16889 H 51.981404171396996 89.7807801910164 1.2058239055743485 H 0.0 **** 0.06
16890 H 51.847366193522966 88.12996224661966 0.5530909834580626 H 0.0 **** 0.06
16891 C 56.43694268424832 92.21071172635271 92.2254640429647 C 0.0 **** -0.24
16892 H 56.46577786329033 91.35986758072369 92.9047845936824 H 0.0 **** 0.06
16893 H 55.413848797167134 92.36870911383005 91.88358763439027 H 0.0 **** 0.06
16894 H 57.07974932785936 92.01233752234197 91.36683716772956 H 0.0 **** 0.06
16895 H 56.78848049884505 93.10267380004456 92.74453877890384 H 0.0 **** 0.06
16896 C 17.814957536722545 30.73360958450462 78.2948276215732 C 0.0 **** -0.24
16897 H 17.51596375960318 30.495155680587516 79.31581744407589 H 0.0 **** 0.06
16898 H 17.844927597076747 31.816801494819913 78.1699520920501 H 0.0 **** 0.06
16899 H 17.095747164345454 30.306201166217875 77.59630689570122 H 0.0 **** 0.06
16900 H 18.803378232121986 30.317238228123188 78.09988874319998 H 0.0 **** 0.06
16901 C 30.519474471539525 49.30248781777482 70.07499531870423 C 0.0 **** -0.24
16902 H 29.690600252919353 50.001146228018854 70.1873415289461 H 0.0 **** 0.06
16903 H 30.79029971222571 48.899730168154036 71.0513091662719 H 0.0 **** 0.06
16904 H 31.376743697996552 49.82172144590055 69.64534581577473 H 0.0 **** 0.06
16905 H 30.221967246760272 48.48755828485565 69.41583070352729 H 0.0 **** 0.06
16906 C 68.35965250544459 93.24615571531899 61.96538364163962 C 0.0 **** -0.24
16907 H 69.12265644283434 93.98264583396727 62.21606071422224 H 0.0 **** 0.06
16908 H 67.43819173758905 93.48204851250557 62.496487499818855 H 0.0 **** 0.06
16909 H 68.70393278246746 92.25362139261898 62.256621447413295 H 0.0 **** 0.06
16910 H 68.17519799332854 93.26582102205327 60.89142157271813 H 0.0 **** 0.06
16911 C 50.8730687130431 62.63738105900518 75.97621504814853 C 0.0 **** -0.24
16912 H 50.389462788363005 62.97812900692247 76.89185574811097 H 0.0 **** 0.06
16913 H 50.18349976027423 62.00591057345781 75.4144201513252 H 0.0 **** 0.06
16914 H 51.76663584608423 62.06670517347004 76.22811089600955 H 0.0 **** 0.06
16915 H 51.15209763120737 63.499543432070766 75.3701881060577 H 0.0 **** 0.06
16916 C 53.739274156963006 83.50223319677902 109.8353331243242 C 0.0 **** -0.24
16917 H 54.706978297611286 83.02069218657628 109.69707014797504 H 0.0 **** 0.06
16918 H 53.15777892834593 82.9460843043277 110.57177831925304 H 0.0 **** 0.06
16919 H 53.20292043084364 83.5186634448218 108.88601415160585 H 0.0 **** 0.06
16920 H 53.88821050481164 84.52330784721937 110.18575890493395 H 0.0 **** 0.06
16921 C 63.22578115682404 25.079558985186736 90.44233851936679 C 0.0 **** -0.24
16922 H 63.015288653853816 24.980374332164473 91.50718970149495 H 0.0 **** 0.06
16923 H 64.0737982569268 25.74971365107038 90.3004073117304 H 0.0 **** 0.06
16924 H 62.35105270456273 25.48633942052075 89.93568528039418 H 0.0 **** 0.06
16925 H 63.462841558934144 24.0989168307392 90.02685785552427 H 0.0 **** 0.06
16926 C 63.24302181432893 69.99727135680291 63.362983091360036 C 0.0 **** -0.24
16927 H 62.30116620402828 69.46780743158479 63.2191995986301 H 0.0 **** 0.06
16928 H 63.39713926903801 70.69344417059705 62.53946085145685 H 0.0 **** 0.06
16929 H 64.06226722923304 69.2780011797891 63.38993029023254 H 0.0 **** 0.06
16930 H 63.21077739041175 70.54685246874442 64.30410033400634 H 0.0 **** 0.06
16931 C 1.5105696251409881 31.73062300059169 104.38666843059386 C 0.0 **** -0.24
16932 H 2.540319203434308 31.938547881500313 104.09706741077957 H 0.0 **** 0.06
16933 H 0.8957130907564306 32.61095121867103 104.19884028419595 H 0.0 **** 0.06
16934 H 1.474323181117029 31.480319041439273 105.44697115170824 H 0.0 **** 0.06
16935 H 1.1323131377294544 30.891694341835375 103.8024206465353 H 0.0 **** 0.06
16936 C 99.66780820268917 106.63927388079348 32.18719502806678 C 0.0 **** -0.24
16937 H 99.35523513613995 105.90927122166076 32.93348913917307 H 0.0 **** 0.06
16938 H 98.87186875575497 106.77407600226194 31.454499635474207 H 0.0 **** 0.06
16939 H 100.56815293491775 106.28432999000606 31.685435182413613 H 0.0 **** 0.06
16940 H 99.87654165221824 107.59082745522176 32.67665789562981 H 0.0 **** 0.06
16941 C 67.12748042978353 95.1819064317468 84.3777718378133 C 0.0 **** -0.24
16942 H 66.56186535788686 95.82562743954716 85.05174929179634 H 0.0 **** 0.06
16943 H 67.21298520396789 95.6622416108229 83.40300633470173 H 0.0 **** 0.06
16944 H 66.61106082820984 94.22739735306573 84.26943432555228 H 0.0 **** 0.06
16945 H 68.12261608797593 95.01174109203241 84.78927947472249 H 0.0 **** 0.06
16946 C 47.19700713894849 14.072410009443956 6.730223989422086 C 0.0 **** -0.24
16947 H 46.53026700363455 13.895945062871107 7.574026350980148 H 0.0 **** 0.06
16948 H 46.631630940779985 14.505436071703691 5.904432268969799 H 0.0 **** 0.06
16949 H 47.63825737358536 13.12842556721592 6.412385553963475 H 0.0 **** 0.06
16950 H 47.9872586550253 14.761054611054043 7.029690016194138 H 0.0 **** 0.06
16951 C 36.80602957568958 100.33330356425262 105.03844171279992 C 0.0 **** -0.24
16952 H 36.24330511347256 100.9547003186831 104.34199862749122 H 0.0 **** 0.06
16953 H 36.62193769810753 100.67488660152608 106.05763109757461 H 0.0 **** 0.06
16954 H 37.86998121949483 100.41038449091393 104.81476526053764 H 0.0 **** 0.06
16955 H 36.48746353246227 99.29587683956264 104.93949642520262 H 0.0 **** 0.06
16956 C 88.42527104699653 47.537691783862904 39.46033719707157 C 0.0 **** -0.24
16957 H 88.01237608380768 46.64376475644009 39.92939798884515 H 0.0 **** 0.06
16958 H 88.58628523217061 48.303558760093885 40.21953149133719 H 0.0 **** 0.06
16959 H 87.72733164765188 47.90963101866839 38.71057289596604 H 0.0 **** 0.06
16960 H 89.3740622836867 47.291691802438 38.98370220044535 H 0.0 **** 0.06
16961 C 9.422807228187574 58.60611524430914 49.232907578966305 C 0.0 **** -0.24
16962 H 8.617681060967339 59.29181658621607 48.967031091218736 H 0.0 **** 0.06
16963 H 9.711869223001894 58.772093587298315 50.27140127592142 H 0.0 **** 0.06
16964 H 10.279601652260673 58.78501173349338 48.5841356331525 H 0.0 **** 0.06
16965 H 9.080973540236648 57.57881880633994 49.10922468163969 H 0.0 **** 0.06
16966 C 20.86081285924621 39.047484364595505 72.35157331967574 C 0.0 **** -0.24
16967 H 21.67524755114445 39.57429561400383 71.85301054821703 H 0.0 **** 0.06
16968 H 20.1218286956136 39.76896372804613 72.7013728485586 H 0.0 **** 0.06
16969 H 21.255532747644708 38.490051052425926 73.20139275664778 H 0.0 **** 0.06
16970 H 20.392529721103244 38.35744243909852 71.64963758308807 H 0.0 **** 0.06
16971 C 45.5792225183301 99.38531287604023 100.78617826286705 C 0.0 **** -0.24
16972 H 45.058525702369124 98.91115672674553 99.95382945590035 H 0.0 **** 0.06
16973 H 45.51136678553091 98.74687552582972 101.66762260817057 H 0.0 **** 0.06
16974 H 45.11947497297734 100.35086413554485 100.99979415936002 H 0.0 **** 0.06
16975 H 46.62629895524667 99.53185058628034 100.52296861789966 H 0.0 **** 0.06
16976 C 17.038399340155152 26.962723694136315 30.910481956608066 C 0.0 **** -0.24
16977 H 17.071154745475596 27.102782972424066 29.829882017679864 H 0.0 **** 0.06
16978 H 16.882521389046644 27.925678058580722 31.397302983096893 H 0.0 **** 0.06
16979 H 17.979846892401582 26.531117367216357 31.24977121037564 H 0.0 **** 0.06
16980 H 16.218167811181004 26.28987517459396 31.16443458141663 H 0.0 **** 0.06
16981 C 82.92240563131736 89.58348583594764 108.85840370454582 C 0.0 **** -0.24
16982 H 82.42779961253393 88.69486231900629 108.4643898278058 H 0.0 **** 0.06
16983 H 82.8407087936003 89.59386877642987 109.94448770933795 H 0.0 **** 0.06
16984 H 82.44741346400997 90.47408301051513 108.44792130064204 H 0.0 **** 0.06
16985 H 83.97466453786456 89.56893867434167 108.57254122095554 H 0.0 **** 0.06
16986 C 45.425991259468745 98.72856496093868 92.85453399515598 C 0.0 **** -0.24
16987 H 45.69996693252811 97.84393304963226 93.42885917555827 H 0.0 **** 0.06
16988 H 44.4522236722277 99.09011895784306 93.1863911541505 H 0.0 **** 0.06
16989 H 45.377327856416365 98.47448689956184 91.7954041765143 H 0.0 **** 0.06
16990 H 46.17470807962862 99.50667040901772 93.00730778258207 H 0.0 **** 0.06
16991 C 12.257767337622589 21.55838253429698 75.50470614208052 C 0.0 **** -0.24
16992 H 13.345307333190998 21.6052856952802 75.45224126943742 H 0.0 **** 0.06
16993 H 11.914389454606106 22.091865160392217 76.39217036646403 H 0.0 **** 0.06
16994 H 11.940603344420204 20.51705207960896 75.56073843009528 H 0.0 **** 0.06
16995 H 11.830942302168232 22.020524880006377 74.61440642424031 H 0.0 **** 0.06
16996 C 42.70113308422117 55.986178026640516 91.22826832835601 C 0.0 **** -0.24
16997 H 41.71549643806321 56.41536052614981 91.40858338619967 H 0.0 **** 0.06
16998 H 43.0097587459332 55.40777886770334 92.09953601735336 H 0.0 **** 0.06
16999 H 43.41945693698233 56.786897136149264 91.0505114327281 H 0.0 **** 0.06
17000 H 42.659715810775594 55.335205522926344 90.35574951844771 H 0.0 **** 0.06
17001 C 96.95340904886892 18.338238505103163 22.019227513103743 C 0.0 **** -0.24
17002 H 96.83501631100879 17.53603920275262 22.74704007684528 H 0.0 **** 0.06
17003 H 97.2403001494669 17.91477167852682 21.056060790141913 H 0.0 **** 0.06
17004 H 97.72841252673808 19.02504271096538 22.359085292728963 H 0.0 **** 0.06
17005 H 96.01163218303607 18.875725500819826 21.914357439149143 H 0.0 **** 0.06
17006 C 60.797873930789635 65.50366687558872 48.80856537748127 C 0.0 **** -0.24
17007 H 60.39951997701269 64.50526936805679 48.994033341566364 H 0.0 **** 0.06
17008 H 60.922385564146 65.6510210469663 47.735565211869186 H 0.0 **** 0.06
17009 H 61.76166771409481 65.60733294926533 49.304894415406636 H 0.0 **** 0.06
17010 H 60.104776818326386 66.24902768146308 49.19996727552686 H 0.0 **** 0.06
17011 C 31.398496964036156 55.351140482369686 100.89670501759205 C 0.0 **** -0.24
17012 H 32.110434557925885 55.472144710430655 100.08071939754244 H 0.0 **** 0.06
17013 H 31.096180553885233 56.33217765064802 101.26451562814447 H 0.0 **** 0.06
17014 H 31.864404626579073 54.787265357907586 101.70530607120341 H 0.0 **** 0.06
17015 H 30.521905603711673 54.81213546376969 100.53668844679682 H 0.0 **** 0.06
17016 C 11.360164293952607 108.18350238265052 56.78963365974067 C 0.0 **** -0.24
17017 H 12.443143257525492 108.2928225668777 56.853347326502416 H 0.0 **** 0.06
17018 H 11.11837826511669 107.34226151383393 56.14002296817418 H 0.0 **** 0.06
17019 H 10.927287763085417 109.09599769278142 56.38058731530174 H 0.0 **** 0.06
17020 H 10.955584478655624 108.00300020844811 57.78475967762677 H 0.0 **** 0.06
17021 C 14.17758058849995 44.52672918874785 30.3942643967236 C 0.0 **** -0.24
17022 H 13.819119421823572 44.68897451244541 29.377835958133588 H 0.0 **** 0.06
17023 H 14.742683944649883 45.39948524980528 30.723440416295333 H 0.0 **** 0.06
17024 H 14.820649367234225 43.64743626435427 30.415878821585878 H 0.0 **** 0.06
17025 H 13.327698352290554 44.37195356356119 31.05885330253072 H 0.0 **** 0.06
17026 C 110.01742842270643 39.10781458338835 79.55708492410568 C 0.0 **** -0.24
17027 H 110.46915200709125 38.17790097314676 79.90270786884798 H 0.0 **** 0.06
17028 H 110.20763908508815 39.895447920268964 80.28714206850645 H 0.0 **** 0.06
17029 H 108.94253357739997 38.96904338579856 79.44417645253066 H 0.0 **** 0.06
17030 H 110.4512727898255 39.38813139218652 78.59787419526134 H 0.0 **** 0.06
17031 C 13.166850239060096 60.54114407044034 85.65912010337775 C 0.0 **** -0.24
17032 H 13.052455952115537 61.58672444096578 85.94340221557431 H 0.0 **** 0.06
17033 H 12.402591373099398 60.2788737708164 84.92640768360656 H 0.0 **** 0.06
17034 H 13.05663585033281 59.911266116495824 86.54142064485347 H 0.0 **** 0.06
17035 H 14.154942399153555 60.38815829403285 85.22415457767158 H 0.0 **** 0.06
17036 C 65.24698648893332 35.07792814083371 5.005614123028522 C 0.0 **** -0.24
17037 H 64.49865000862681 34.33992689405457 4.718000898041083 H 0.0 **** 0.06
17038 H 64.7495743321532 35.96008967956538 5.409768723651979 H 0.0 **** 0.06
17039 H 65.83412092356434 35.359497511156995 4.1311001944091 H 0.0 **** 0.06
17040 H 65.90477140902959 34.65268468868721 5.7633111025068615 H 0.0 **** 0.06
17041 C 101.13583770522452 12.303725880505766 109.24240357797939 C 0.0 **** -0.24
17042 H 100.53004018509276 12.843004664086692 108.51309118214208 H 0.0 **** 0.06
17043 H 102.11429608585351 12.08705519331619 108.81209460483288 H 0.0 **** 0.06
17044 H 100.6396634954902 11.36968264736322 109.50661588021336 H 0.0 **** 0.06
17045 H 101.25882163895398 12.916065510454757 110.13583733142173 H 0.0 **** 0.06
17046 C 43.905925876323664 69.86338653143235 108.3593324889971 C 0.0 **** -0.24
17047 H 44.89817541797533 69.84707635795559 107.91010706338214 H 0.0 **** 0.06
17048 H 43.94847226730048 69.40984790414933 109.35075639778557 H 0.0 **** 0.06
17049 H 43.2136848137065 69.30129804774762 107.73197883255598 H 0.0 **** 0.06
17050 H 43.56200635217988 70.89411738761012 108.4457847749522 H 0.0 **** 0.06
17051 C 40.962675675666105 19.706005002661414 37.43444100336785 C 0.0 **** -0.24
17052 H 40.06938042177126 19.688613769213077 36.80981961192049 H 0.0 **** 0.06
17053 H 41.53341493011396 20.61078708137461 37.2267903481864 H 0.0 **** 0.06
17054 H 41.575242104918345 18.83058149732898 37.21483254545029 H 0.0 **** 0.06
17055 H 40.67205564645661 19.691404766637106 38.484679329632854 H 0.0 **** 0.06
17056 C 105.69824591020998 7.011589542132578 75.17125967675065 C 0.0 **** -0.24
17057 H 106.38140548895419 7.128266012288773 76.01199642247764 H 0.0 **** 0.06
17058 H 105.49935029062215 7.98648360727238 74.72660722202232 H 0.0 **** 0.06
17059 H 104.7632541601912 6.5730799840851315 75.52112474655053 H 0.0 **** 0.06
17060 H 106.14961856449708 6.3569276319534325 74.42516431681986 H 0.0 **** 0.06
17061 C 19.22937053430192 2.935061896321315 63.728798665344925 C 0.0 **** -0.24
17062 H 18.63280353398349 3.63530054971568 63.14194987675799 H 0.0 **** 0.06
17063 H 19.774936140342305 2.272758095428742 63.05695898640346 H 0.0 **** 0.06
17064 H 18.571685650042525 2.3452235469903826 64.36773221136836 H 0.0 **** 0.06
17065 H 19.935438507108415 3.489983100540769 64.3460961444174 H 0.0 **** 0.06
17066 C 2.872284520692844 93.25718774030746 101.2227166778099 C 0.0 **** -0.24
17067 H 2.0704802221070366 92.52938673556821 101.09540080760547 H 0.0 **** 0.06
17068 H 3.127630858274557 93.3323933341018 102.28048989582237 H 0.0 **** 0.06
17069 H 2.54062884747556 94.2296137913654 100.85898489244204 H 0.0 **** 0.06
17070 H 3.746952846597594 92.93619442022118 100.65793504967951 H 0.0 **** 0.06
17071 C 94.41981582977148 44.766195929619556 86.6176391895537 C 0.0 **** -0.24
17072 H 93.87798618121003 45.60893099592266 86.1866646624037 H 0.0 **** 0.06
17073 H 93.74474341654773 44.18200197440129 87.24343821310913 H 0.0 **** 0.06
17074 H 95.24544501419324 45.13829030888019 87.22405896370609 H 0.0 **** 0.06
17075 H 94.81080871713242 44.137873470524596 85.81715108941017 H 0.0 **** 0.06
17076 C 110.57312660875216 105.42851347990512 61.50801448775141 C 0.0 **** -0.24
17077 H 111.19055382128366 106.2912422548498 61.258415979093755 H 0.0 **** 0.06
17078 H 109.53143631228599 105.73887399727613 61.586387833076856 H 0.0 **** 0.06
17079 H 110.9013229471473 105.01159821167795 62.460137144066834 H 0.0 **** 0.06
17080 H 110.67120481944161 104.67430840863682 60.72683836425743 H 0.0 **** 0.06
17081 C 69.36418491506714 58.64540955310804 72.13609387888084 C 0.0 **** -0.24
17082 H 69.44827085760232 58.42604126758323 71.07186090373868 H 0.0 **** 0.06
17083 H 69.76779560723281 57.81284999406185 72.71187482278211 H 0.0 **** 0.06
17084 H 68.3157390749553 58.791723469360505 72.3942842159137 H 0.0 **** 0.06
17085 H 69.92564697767398 59.551766969687975 72.36437080327578 H 0.0 **** 0.06
17086 C 110.19857306089835 50.43983371418265 63.54233218255459 C 0.0 **** -0.24
17087 H 111.2101266519502 50.739392369941136 63.26586565348187 H 0.0 **** 0.06
17088 H 109.48465618760443 51.16061879260199 63.14420496546089 H 0.0 **** 0.06
17089 H 110.11547789317878 50.40759023780115 64.6287848019717 H 0.0 **** 0.06
17090 H 109.98693895224976 49.453304755935136 63.13191499439462 H 0.0 **** 0.06
17091 C 14.392287981050472 93.20318915763946 31.624850214375634 C 0.0 **** -0.24
17092 H 14.241471137942632 92.75993858262848 32.609280481226556 H 0.0 **** 0.06
17093 H 15.439024051934368 93.10037903261986 31.337562134252174 H 0.0 **** 0.06
17094 H 14.12624240566657 94.25905821836102 31.657129290878437 H 0.0 **** 0.06
17095 H 13.762957084012001 92.69209145191746 30.895636572367742 H 0.0 **** 0.06
17096 C 95.99758244667646 108.29949203492583 14.003666556897809 C 0.0 **** -0.24
17097 H 95.07968344106354 107.71881656282773 14.095786851745633 H 0.0 **** 0.06
17098 H 96.16735603678549 108.54609121613555 12.9555828272863 H 0.0 **** 0.06
17099 H 96.83705477746012 107.71530854915056 14.379771009419596 H 0.0 **** 0.06
17100 H 95.90577285346917 109.21830824899621 14.582835353059561 H 0.0 **** 0.06
17101 C 32.96834817553733 78.73288902995398 6.104184854047439 C 0.0 **** -0.24
17102 H 33.1266688159684 78.09091376971801 6.97095361854641 H 0.0 **** 0.06
17103 H 33.92825628979858 79.10900153048263 5.751263478266138 H 0.0 **** 0.06
17104 H 32.330502262878156 79.57099918305013 6.3848228616449205 H 0.0 **** 0.06
17105 H 32.48740462229949 78.16067161110035 5.310997458127952 H 0.0 **** 0.06
17106 C 21.431647847061015 77.77360641978478 68.52311651511704 C 0.0 **** -0.24
17107 H 21.18739370574039 77.65691672343077 69.57917341823651 H 0.0 **** 0.06
17108 H 22.416439446707813 77.34893743779334 68.32861847653561 H 0.0 **** 0.06
17109 H 21.435284199892493 78.83272712258855 68.26615381473968 H 0.0 **** 0.06
17110 H 20.685435711252808 77.25671795579723 67.91880736334369 H 0.0 **** 0.06
17111 C 80.9684914041094 49.81624863146411 69.47472835050183 C 0.0 **** -0.24
17112 H 81.84703740858644 49.71514402508906 70.11220817420394 H 0.0 **** 0.06
17113 H 80.42544165575815 50.72154277419742 69.7473310860521 H 0.0 **** 0.06
17114 H 80.32206385367319 48.94962829430856 69.60724726426488 H 0.0 **** 0.06
17115 H 81.28211817697672 49.87998229661093 68.43193350651467 H 0.0 **** 0.06
17116 C 96.54586140431071 68.29709253780743 12.838751932592842 C 0.0 **** -0.24
17117 H 96.11156794688503 69.09045996181862 12.23069104833759 H 0.0 **** 0.06
17118 H 97.05141448742309 68.73576374353257 13.699683661232726 H 0.0 **** 0.06
17119 H 97.26450060094795 67.73424199924364 12.241979972548549 H 0.0 **** 0.06
17120 H 95.7568139686823 67.62880318496457 13.181969300737364 H 0.0 **** 0.06
17121 C 37.483494245041356 52.67089632583632 49.372044648171595 C 0.0 **** -0.24
17122 H 36.6806842466616 52.77746529293386 48.641367581092425 H 0.0 **** 0.06
17123 H 37.117154316742926 52.9589857607757 50.35733712308854 H 0.0 **** 0.06
17124 H 38.31737350598678 53.31481549193164 49.09078095086733 H 0.0 **** 0.06
17125 H 37.817426655060615 51.633930779592426 49.39654563477808 H 0.0 **** 0.06
17126 C 44.20746342116405 2.437934119808432 29.680307158351326 C 0.0 **** -0.24
17127 H 44.43046304688431 2.160716123151758 28.649684960776 H 0.0 **** 0.06
17128 H 44.005001367036556 3.507879341826424 29.733308049349915 H 0.0 **** 0.06
17129 H 45.061144592421044 2.1975346490370953 30.313699821981544 H 0.0 **** 0.06
17130 H 43.33343246528278 1.8846287559174186 30.024440583720974 H 0.0 **** 0.06
17131 C 65.15632237009062 30.693345441494046 65.22194279710742 C 0.0 **** -0.24
17132 H 65.72097429965174 31.618978080651004 65.10636947877688 H 0.0 **** 0.06
17133 H 65.42661713169356 30.00293022167648 64.42206445008361 H 0.0 **** 0.06
17134 H 64.08968885218648 30.909260283206834 65.1703831695258 H 0.0 **** 0.06
17135 H 65.39065029831225 30.242114893739995 66.18578931873928 H 0.0 **** 0.06
17136 C 44.25044992349519 85.81787148973216 18.503296391300495 C 0.0 **** -0.24
17137 H 44.056827875028794 86.44549972247361 17.63271549517728 H 0.0 **** 0.06
17138 H 43.75122248805223 86.24253995328426 19.374123231669046 H 0.0 **** 0.06
17139 H 45.32366508711664 85.77083985606255 18.686003626247327 H 0.0 **** 0.06
17140 H 43.868566127145414 84.81417973002797 18.319238521444504 H 0.0 **** 0.06
17141 C 72.49663476552986 94.80928347324364 18.729678813292452 C 0.0 **** -0.24
17142 H 71.41949482579273 94.93550388618279 18.62369931655317 H 0.0 **** 0.06
17143 H 72.77739313995318 93.80456899375416 18.412894488969727 H 0.0 **** 0.06
17144 H 72.77931466644844 94.95416027292474 19.772649832850476 H 0.0 **** 0.06
17145 H 73.0117200289072 95.5431219350977 18.109279710679033 H 0.0 **** 0.06
17146 C 102.51487364600433 85.18784229366274 92.06766241906296 C 0.0 **** -0.24
17147 H 102.4205377265018 84.35005254848764 92.75937758239876 H 0.0 **** 0.06
17148 H 103.53990527954801 85.55862933472925 92.08520867829083 H 0.0 **** 0.06
17149 H 101.83442983910066 85.98486559314796 92.36821497953 H 0.0 **** 0.06
17150 H 102.26426216071161 84.85609809306082 91.06027749780067 H 0.0 **** 0.06
17151 C 25.521994728441342 47.017752668288324 12.499296745233707 C 0.0 **** -0.24
17152 H 24.97410074687275 47.58609527611662 11.748505472078918 H 0.0 **** 0.06
17153 H 25.69360991062834 47.64347018272886 13.375592124441994 H 0.0 **** 0.06
17154 H 26.479387451797237 46.69881378516709 12.086425181388265 H 0.0 **** 0.06
17155 H 24.941182369758963 46.14129989962103 12.787033239699383 H 0.0 **** 0.06
17156 C 19.52206295517594 92.44400713173583 29.810569728236317 C 0.0 **** -0.24
17157 H 18.634451469575396 93.02286459388786 29.555707785262797 H 0.0 **** 0.06
17158 H 19.223006169346604 91.47057268075777 30.198589203838026 H 0.0 **** 0.06
17159 H 20.097801642045493 92.97716176486259 30.567909739884442 H 0.0 **** 0.06
17160 H 20.13419467402849 92.30802423007702 28.918722114873106 H 0.0 **** 0.06
17161 C 39.57350838129247 90.53222228028613 59.33844834772941 C 0.0 **** -0.24
17162 H 39.4738713481604 90.06627599413582 58.35871155028434 H 0.0 **** 0.06
17163 H 39.14333936069238 91.53309966409398 59.311378447735734 H 0.0 **** 0.06
17164 H 40.629555845939905 90.5973325204813 59.603110797224474 H 0.0 **** 0.06
17165 H 39.04954594845833 89.93079865417559 60.081969545408754 H 0.0 **** 0.06
17166 C 107.20636635797109 48.45354348870029 54.81942135349348 C 0.0 **** -0.24
17167 H 108.17766429293381 48.72247118063658 55.23299950061621 H 0.0 **** 0.06
17168 H 107.25886204204835 48.4675589437691 53.730062560442136 H 0.0 **** 0.06
17169 H 106.45743667824448 49.17119692367539 55.15627692906885 H 0.0 **** 0.06
17170 H 106.93152720864101 47.455129906092935 55.157862532761534 H 0.0 **** 0.06
17171 C 38.54856521425171 82.90634436342395 18.203546509702726 C 0.0 **** -0.24
17172 H 38.068712683265346 83.03511122806538 19.174236173752032 H 0.0 **** 0.06
17173 H 38.911786813457695 83.87104169804377 17.84766744252795 H 0.0 **** 0.06
17174 H 37.82737356176686 82.504793825219 17.492332441123896 H 0.0 **** 0.06
17175 H 39.38587814006637 82.21539637802493 18.301901383512295 H 0.0 **** 0.06
17176 C 49.619474092425776 109.35473080680042 41.94164974402929 C 0.0 **** -0.24
17177 H 48.53420299106824 109.3010691939664 42.01717268019621 H 0.0 **** 0.06
17178 H 50.04879264175344 108.3791041836465 42.17247234790915 H 0.0 **** 0.06
17179 H 49.99780733876452 110.09462303327031 42.647647070702476 H 0.0 **** 0.06
17180 H 49.89788102289185 109.64442379138225 40.92779307287719 H 0.0 **** 0.06
17181 C 84.80492357340266 0.6683527936659175 75.29482026523283 C 0.0 **** -0.24
17182 H 83.7979536939357 0.8039421808020961 75.69223066091894 H 0.0 **** 0.06
17183 H 85.14811096791544 -0.34293839357860634 75.51322878846008 H 0.0 **** 0.06
17184 H 85.4777966279582 1.3886309987265122 75.7600243979279 H 0.0 **** 0.06
17185 H 84.79324492674407 0.8243674832809802 74.21643409971296 H 0.0 **** 0.06
17186 C 53.09316088571906 3.8621812566639164 35.559842631739116 C 0.0 **** -0.24
17187 H 52.95523832799755 4.363508080204596 36.51851754093843 H 0.0 **** 0.06
17188 H 52.17633366946133 3.33726783107484 35.28965837351993 H 0.0 **** 0.06
17189 H 53.91221471650929 3.147675628777961 35.63853973798973 H 0.0 **** 0.06
17190 H 53.32782053896935 4.602112671127642 34.79389737404392 H 0.0 **** 0.06
17191 C 48.34909239360337 72.67354263376333 50.41131064839294 C 0.0 **** -0.24
17192 H 48.09585437410669 71.73280120907717 49.92174569448124 H 0.0 **** 0.06
17193 H 49.37267642861889 72.94904268660439 50.159197321025246 H 0.0 **** 0.06
17194 H 48.25912045621271 72.5548709342885 51.49137677650377 H 0.0 **** 0.06
17195 H 47.66707688298652 73.45367498291647 50.073035469212385 H 0.0 **** 0.06
17196 C 33.471313286760335 34.41973050250033 10.550099383640429 C 0.0 **** -0.24
17197 H 33.955636292791326 34.134779210801156 9.616105957895599 H 0.0 **** 0.06
17198 H 32.74159297401502 35.204843088734265 10.355104090698873 H 0.0 **** 0.06
17199 H 34.22223034049023 34.78648325379726 11.250119915635139 H 0.0 **** 0.06
17200 H 32.96915077942569 33.55286320879742 10.977416068032184 H 0.0 **** 0.06
17201 C 16.106535647496994 64.20637363872254 93.1051093564489 C 0.0 **** -0.24
17202 H 16.08127478647401 65.18726986399679 92.63171612106882 H 0.0 **** 0.06
17203 H 16.509009137791924 64.30078488199405 94.11461192386696 H 0.0 **** 0.06
17204 H 16.740463185282792 63.53822707226334 92.52236948082168 H 0.0 **** 0.06
17205 H 15.09601766415972 63.79934005823708 93.15300353653006 H 0.0 **** 0.06
17206 C 88.4154903512844 72.16509133521095 100.00982513851648 C 0.0 **** -0.24
17207 H 88.94569975951126 71.6064479739939 99.23842620272863 H 0.0 **** 0.06
17208 H 88.32176490879667 71.54907998572205 100.90370166726372 H 0.0 **** 0.06
17209 H 87.42337495060676 72.43427954454673 99.64717726545769 H 0.0 **** 0.06
17210 H 88.97253141241202 73.0714818771988 100.24959635248534 H 0.0 **** 0.06
17211 C 90.84439190179637 38.79426847353659 25.023900251751456 C 0.0 **** -0.24
17212 H 90.90646830378523 37.76146969718107 25.36717703933266 H 0.0 **** 0.06
17213 H 89.80103858672766 39.111782867419464 25.016201571112163 H 0.0 **** 0.06
17214 H 91.25434379006907 38.868547968500366 24.0175038821709 H 0.0 **** 0.06
17215 H 91.41391973863858 39.435477170889015 25.69637044617764 H 0.0 **** 0.06
17216 C 15.890891532961092 38.739383511562494 3.361281865558169 C 0.0 **** -0.24
17217 H 15.07679442591703 38.779455180767144 4.085022078818483 H 0.0 **** 0.06
17218 H 16.15519232495916 37.69887781334518 3.1702484646291964 H 0.0 **** 0.06
17219 H 16.757842519031257 39.26749476998933 3.758819587468338 H 0.0 **** 0.06
17220 H 15.573720663193328 39.2108034374092 2.4314670512900562 H 0.0 **** 0.06
17221 C 45.89818340152178 97.69702879438262 97.60838963843457 C 0.0 **** -0.24
17222 H 45.098829453591826 96.98927801392898 97.82813456706549 H 0.0 **** 0.06
17223 H 45.46724386824246 98.67423821871193 97.38699029338596 H 0.0 **** 0.06
17224 H 46.4664983627722 97.34696130412559 96.74640552538347 H 0.0 **** 0.06
17225 H 46.559905235374586 97.77848901024296 98.47092844848069 H 0.0 **** 0.06
17226 C 2.1113818373049043 52.81697749063812 56.52319781142809 C 0.0 **** -0.24
17227 H 3.0957185753494656 53.21012590975454 56.77670958803628 H 0.0 **** 0.06
17228 H 2.2183372594260504 51.82275869504497 56.089373818874336 H 0.0 **** 0.06
17229 H 1.6305727263798389 53.478146539867566 55.80271687178028 H 0.0 **** 0.06
17230 H 1.5008987880641769 52.756878817885536 57.42399096702144 H 0.0 **** 0.06
17231 C 75.18061516518343 100.50496468771196 48.83719041933588 C 0.0 **** -0.24
17232 H 74.98337862125872 101.243157532651 48.06070169823616 H 0.0 **** 0.06
17233 H 74.23696451131211 100.10260366202442 49.20523221903156 H 0.0 **** 0.06
17234 H 75.71906036891234 100.97820836734627 49.659208660724914 H 0.0 **** 0.06
17235 H 75.78475345268032 99.69656600525295 48.425999217125224 H 0.0 **** 0.06
17236 C 71.29950009538248 79.88161945383537 103.01855566483354 C 0.0 **** -0.24
17237 H 71.55784665515908 79.11541559609503 103.74998814327898 H 0.0 **** 0.06
17238 H 70.22700735248635 79.85294207746281 102.82616633299014 H 0.0 **** 0.06
17239 H 71.84146346139399 79.69456910059453 102.09071479358226 H 0.0 **** 0.06
17240 H 71.57401241446831 80.86175137271559 103.40793223870023 H 0.0 **** 0.06
17241 C 62.23895820342847 71.1744146933609 4.536614638852257 C 0.0 **** -0.24
17242 H 61.49296186628763 71.76783919874035 5.064779886666145 H 0.0 **** 0.06
17243 H 62.45220971941637 70.26862001257683 5.104387066143829 H 0.0 **** 0.06
17244 H 63.153937592584555 71.75752046098813 4.424899857998611 H 0.0 **** 0.06
17245 H 61.858351432221355 70.90541356690882 3.551806759346647 H 0.0 **** 0.06
17246 C 91.05516207522842 10.24397820645062 106.63314404869186 C 0.0 **** -0.24
17247 H 92.08179883095387 9.935917066271358 106.43684070393817 H 0.0 **** 0.06
17248 H 91.00669237986247 11.332664997855915 106.682949565379 H 0.0 **** 0.06
17249 H 90.72313178543659 9.821614372748627 107.58116323303653 H 0.0 **** 0.06
17250 H 90.40962625420173 9.888167977856256 105.830001265922 H 0.0 **** 0.06
17251 C 18.38847955284578 88.90376599244752 27.25279111499924 C 0.0 **** -0.24
17252 H 19.17404830060721 88.15825285578717 27.379506073634957 H 0.0 **** 0.06
17253 H 18.657688667356496 89.81104894984742 27.792807574920914 H 0.0 **** 0.06
17254 H 17.45032117339869 88.51184157785627 27.644183221896867 H 0.0 **** 0.06
17255 H 18.272606803098228 89.13157121779761 26.19268684217826 H 0.0 **** 0.06
17256 C 48.88607543766108 77.74476550763524 3.4085717324255427 C 0.0 **** -0.24
17257 H 48.23642058864284 77.06936433765475 3.9653073717109066 H 0.0 **** 0.06
17258 H 48.33652105932123 78.65213346631867 3.157010348092385 H 0.0 **** 0.06
17259 H 49.219294770165526 77.25562576167044 2.49278356898607 H 0.0 **** 0.06
17260 H 49.7519778996279 78.00210938247517 4.0182042169730465 H 0.0 **** 0.06
17261 C 85.04101931468554 63.577938842362926 35.27931087161673 C 0.0 **** -0.24
17262 H 85.12669875046811 64.53988877899224 34.774487083558 H 0.0 **** 0.06
17263 H 85.65285486397418 62.83891193738546 34.75999850798618 H 0.0 **** 0.06
17264 H 84.00040592134475 63.256653214428695 35.27519469904675 H 0.0 **** 0.06
17265 H 85.38702880462239 63.67662255522555 36.30821353437622 H 0.0 **** 0.06
17266 C 62.71729868359613 107.67533770548248 38.30317136115855 C 0.0 **** -0.24
17267 H 62.68465114705616 107.47922640908126 37.231981288009194 H 0.0 **** 0.06
17268 H 61.96832120948403 107.06421570658426 38.806760851083936 H 0.0 **** 0.06
17269 H 62.507954297248176 108.73014710842767 38.485393371596786 H 0.0 **** 0.06
17270 H 63.70717840619895 107.42938749865989 38.68746858866717 H 0.0 **** 0.06
17271 C 100.24921383383077 29.69517705992834 60.33097306476344 C 0.0 **** -0.24
17272 H 100.55537522896111 28.672542663703098 60.11053299595585 H 0.0 **** 0.06
17273 H 101.10707143752387 30.360947635467937 60.230500865876024 H 0.0 **** 0.06
17274 H 99.86521338994623 29.747416196740545 61.34997673804037 H 0.0 **** 0.06
17275 H 99.46919527889207 29.999801743801868 59.632881659181294 H 0.0 **** 0.06
17276 C 0.6031948540277199 92.74727346152437 11.051024511996697 C 0.0 **** -0.24
17277 H 1.236110355724957 93.39057946981802 11.661858410078008 H 0.0 **** 0.06
17278 H 0.5854593921428224 93.12074962280633 10.026832256789364 H 0.0 **** 0.06
17279 H -0.40975717039302406 92.74430154544751 11.454490909723361 H 0.0 **** 0.06
17280 H 1.0007311879704845 91.73207172049891 11.060825192801673 H 0.0 **** 0.06
17281 C 27.904297714486177 21.443570992787244 98.82969508087457 C 0.0 **** -0.24
17282 H 27.438213245938925 20.655090966865032 98.2388734125023 H 0.0 **** 0.06
17283 H 28.760764210193315 21.84505909841377 98.28890387503763 H 0.0 **** 0.06
17284 H 28.236024024447545 21.034411531704535 99.78480816450478 H 0.0 **** 0.06
17285 H 27.18051842160395 22.238970618737525 99.00782062428988 H 0.0 **** 0.06
17286 C 67.98470441281222 13.428702767531092 110.38775856081219 C 0.0 **** -0.24
17287 H 68.1631415506572 13.676178816284406 111.43392943477318 H 0.0 **** 0.06
17288 H 66.96211039498195 13.070708443697654 110.26801602316806 H 0.0 **** 0.06
17289 H 68.68140392706454 12.651538751628308 110.07505012846758 H 0.0 **** 0.06
17290 H 68.13236630984619 14.317952095565644 109.77474767916516 H 0.0 **** 0.06
17291 C 53.57249273651428 108.95496808216794 49.07126648985153 C 0.0 **** -0.24
17292 H 52.64795343356923 108.52614109342139 48.68591836754503 H 0.0 **** 0.06
17293 H 53.95032867991267 109.69599451386951 48.365981001715824 H 0.0 **** 0.06
17294 H 54.3128422429167 108.1653782494055 49.20058101210299 H 0.0 **** 0.06
17295 H 53.37974268598475 109.43192705469036 50.03158009753221 H 0.0 **** 0.06
17296 C 15.56940594741927 56.48213403190416 74.53013632503341 C 0.0 **** -0.24
17297 H 15.649144152658291 57.369207164874965 75.15789325937911 H 0.0 **** 0.06
17298 H 15.847282769084696 56.7346504461477 73.50680418509164 H 0.0 **** 0.06
17299 H 14.543159480197676 56.114481751774385 74.5490506488111 H 0.0 **** 0.06
17300 H 16.239094990186608 55.708358215514565 74.90750534871475 H 0.0 **** 0.06
17301 C 66.47609605478613 2.291527431955185 25.782102083399934 C 0.0 **** -0.24
17302 H 66.98100445660097 2.418817272422511 24.824624917208098 H 0.0 **** 0.06
17303 H 66.97147166383867 2.9007183653362727 26.537506012646816 H 0.0 **** 0.06
17304 H 66.51646681192292 1.2421232107061213 26.077005121484945 H 0.0 **** 0.06
17305 H 65.43609171913727 2.602613574486627 25.688176152725816 H 0.0 **** 0.06
17306 C 37.33667018696738 55.24297581180684 62.34782112710511 C 0.0 **** -0.24
17307 H 37.78590091708895 54.2624159495885 62.505510197700346 H 0.0 **** 0.06
17308 H 36.25017611423618 55.15125043257862 62.36134388340221 H 0.0 **** 0.06
17309 H 37.65673997397275 55.638329368317756 61.383662612614586 H 0.0 **** 0.06
17310 H 37.65490082063886 55.9201878544003 63.14168758055405 H 0.0 **** 0.06
17311 C 38.53720966630348 69.32677719933967 35.3366449888824 C 0.0 **** -0.24
17312 H 39.37784949666348 68.65062996905426 35.49449733704125 H 0.0 **** 0.06
17313 H 38.41613495541708 69.51328183554487 34.26969154412595 H 0.0 **** 0.06
17314 H 38.72807706762386 70.26897826619447 35.850695115342745 H 0.0 **** 0.06
17315 H 37.628357433047675 68.87471836495372 35.732199152432514 H 0.0 **** 0.06
17316 C 59.17268231141088 18.308042397147375 49.896524264166544 C 0.0 **** -0.24
17317 H 60.143762697402565 17.828831110358905 49.77382895929105 H 0.0 **** 0.06
17318 H 58.86184155414196 18.747739790885902 48.94895424333248 H 0.0 **** 0.06
17319 H 59.246056456436406 19.08935569976353 50.653602552714744 H 0.0 **** 0.06
17320 H 58.437905786183535 17.566165172625247 50.21099274764461 H 0.0 **** 0.06
17321 C 80.93769662320244 102.79421504562396 3.93437706448816 C 0.0 **** -0.24
17322 H 80.12115159216171 102.51090063630846 3.2707289225342606 H 0.0 **** 0.06
17323 H 81.83872322265927 102.97170671890927 3.3463247217300705 H 0.0 **** 0.06
17324 H 81.12070133836983 101.9915329277498 4.648292599821161 H 0.0 **** 0.06
17325 H 80.66928373491578 103.70447429297411 4.4711306270588125 H 0.0 **** 0.06
17326 C 19.851354757251272 79.53273993564571 77.13892737090583 C 0.0 **** -0.24
17327 H 19.611386964063797 80.56534185803427 76.88251649931023 H 0.0 **** 0.06
17328 H 19.563282067673583 79.33938091318647 78.17201987556071 H 0.0 **** 0.06
17329 H 20.922451021659356 79.3694245520903 77.0230801814748 H 0.0 **** 0.06
17330 H 19.306409096321772 78.85958189887027 76.47643189057753 H 0.0 **** 0.06
17331 C 59.26220024162352 17.58502895772304 63.80340911389531 C 0.0 **** -0.24
17332 H 58.46264291147852 18.082991607488523 63.255370810483655 H 0.0 **** 0.06
17333 H 58.832208291875716 16.878359784204918 64.51336921485549 H 0.0 **** 0.06
17334 H 59.85063787235474 18.328307866710645 64.34097988130917 H 0.0 **** 0.06
17335 H 59.90442716989149 17.050736813037247 63.10309331245146 H 0.0 **** 0.06
17336 C 87.51695262764723 48.70427407017962 76.60294155544614 C 0.0 **** -0.24
17337 H 87.47013925240323 47.715548778987284 76.1477081173677 H 0.0 **** 0.06
17338 H 86.83912380000366 48.74408009960143 77.45681589898021 H 0.0 **** 0.06
17339 H 87.22227413195036 49.455894754718685 75.86998882362312 H 0.0 **** 0.06
17340 H 88.53539670719206 48.90261841037176 76.93762489149756 H 0.0 **** 0.06
17341 C 3.460562703964598 89.99247787288408 65.10148276342642 C 0.0 **** -0.24
17342 H 3.1470988477313 89.41071505266683 64.23504111521441 H 0.0 **** 0.06
17343 H 2.6213600882460213 90.58821248324739 65.46047436808135 H 0.0 **** 0.06
17344 H 4.279845735511742 90.65322478043717 64.81871509663898 H 0.0 **** 0.06
17345 H 3.7920772447641724 89.31898678168369 65.8916793092628 H 0.0 **** 0.06
17346 C 88.94298479982733 55.65387804438214 71.7313252852711 C 0.0 **** -0.24
17347 H 88.4800399786334 54.78772840453328 71.25738786497668 H 0.0 **** 0.06
17348 H 89.90522874226122 55.8546438185586 71.26035986483829 H 0.0 **** 0.06
17349 H 89.0927313522286 55.450552064963915 72.7920586584897 H 0.0 **** 0.06
17350 H 88.29282767232128 56.52175104013946 71.61574863081022 H 0.0 **** 0.06
17351 C 104.45708871107588 38.338620670319415 64.00538989073043 C 0.0 **** -0.24
17352 H 103.9856207838582 38.13608921822845 63.04347265905261 H 0.0 **** 0.06
17353 H 105.53722234891067 38.40555136690375 63.873973168196954 H 0.0 **** 0.06
17354 H 104.22532354722455 37.53135730153144 64.70010241372785 H 0.0 **** 0.06
17355 H 104.07992461811506 39.280621506626005 64.4044418187858 H 0.0 **** 0.06
17356 C 20.66939704046795 75.18507078328552 45.05836326901664 C 0.0 **** -0.24
17357 H 21.684278499886634 74.80946584365226 44.92660098064786 H 0.0 **** 0.06
17358 H 20.042396656089384 74.828418138489 44.24071103235883 H 0.0 **** 0.06
17359 H 20.683540545973468 76.27465199390826 45.057162183242156 H 0.0 **** 0.06
17360 H 20.270104877518104 74.82737648445091 46.00713577132143 H 0.0 **** 0.06
17361 C 48.17049463907881 109.78574225396412 12.33111518663388 C 0.0 **** -0.24
17362 H 48.04448180521098 110.84511214110958 12.552846780648082 H 0.0 **** 0.06
17363 H 47.55027998007739 109.51751790047646 11.475602927625431 H 0.0 **** 0.06
17364 H 47.86946009697033 109.19536785540555 13.197296502928467 H 0.0 **** 0.06
17365 H 49.216075808628716 109.5847411551864 12.100977765401353 H 0.0 **** 0.06
17366 C 110.29957280538657 82.06897615415897 80.14678786957376 C 0.0 **** -0.24
17367 H 109.36386015405418 81.6824523442665 80.54759054493123 H 0.0 **** 0.06
17368 H 110.38422251961579 83.13057287921856 80.37879550928672 H 0.0 **** 0.06
17369 H 110.31598550167956 81.93075837210552 79.06522129600421 H 0.0 **** 0.06
17370 H 111.13573470542596 81.53130542324334 80.59411236762239 H 0.0 **** 0.06
17371 C 68.96897472592941 19.906768051738084 78.9949374824813 C 0.0 **** -0.24
17372 H 69.38046378300251 19.878340779969335 77.98586345598653 H 0.0 **** 0.06
17373 H 69.56103162407292 20.584704719510682 79.6100994597854 H 0.0 **** 0.06
17374 H 68.99589375267074 18.90660095117795 79.42612863793522 H 0.0 **** 0.06
17375 H 67.93753535245796 20.25876691071744 78.95653941817503 H 0.0 **** 0.06
17376 C 17.638679321433813 27.096190639352756 1.7047051656605277 C 0.0 **** -0.24
17377 H 17.664518582698918 26.419848780760162 0.8504898889586059 H 0.0 **** 0.06
17378 H 18.269066683999085 27.961911279027902 1.5022545146802884 H 0.0 **** 0.06
17379 H 18.005443585066246 26.577604515689018 2.589680343251132 H 0.0 **** 0.06
17380 H 16.61323682195564 27.425635543402194 1.8746831356808684 H 0.0 **** 0.06
17381 C 86.8314071220068 36.520592457813365 27.935857623297494 C 0.0 **** -0.24
17382 H 86.02408251563367 36.165702906511264 27.2958380298426 H 0.0 **** 0.06
17383 H 87.78159730833107 36.12607641900038 27.574685255427767 H 0.0 **** 0.06
17384 H 86.6617678452451 36.18183322615046 28.9576670021724 H 0.0 **** 0.06
17385 H 86.8599653193616 37.61014479358687 27.914296455576846 H 0.0 **** 0.06
17386 C 64.68255797222153 85.15526078861154 43.60056352635354 C 0.0 **** -0.24
17387 H 64.0267611649009 85.66110193458174 44.30794526587195 H 0.0 **** 0.06
17388 H 65.62233533405771 84.90247416460817 44.09237569363583 H 0.0 **** 0.06
17389 H 64.88062627510129 85.81328311562409 42.75405579964095 H 0.0 **** 0.06
17390 H 64.20151505348144 84.24376058440671 43.24697792515701 H 0.0 **** 0.06
17391 C 94.10836734602145 51.42651398288848 32.993434598557954 C 0.0 **** -0.24
17392 H 93.7120179009492 52.284202361646635 33.538291064925716 H 0.0 **** 0.06
17393 H 93.36389685601728 50.629880056340426 32.97947550309496 H 0.0 **** 0.06
17394 H 95.01328981219774 51.070511959329934 33.486172497256206 H 0.0 **** 0.06
17395 H 94.34351601979921 51.722648009599425 31.971540558671407 H 0.0 **** 0.06
17396 C 42.481954052945184 87.83443883449232 68.73773112208193 C 0.0 **** -0.24
17397 H 42.53944829188322 87.77299412192237 67.65091526878768 H 0.0 **** 0.06
17398 H 43.037946452245365 87.00602027207698 69.1776503316438 H 0.0 **** 0.06
17399 H 41.4393671416986 87.7798640835745 69.04952402530245 H 0.0 **** 0.06
17400 H 42.91208102392494 88.7789933037152 69.07085178831 H 0.0 **** 0.06
17401 C 25.990165420984727 84.85413281994661 95.50142291431774 C 0.0 **** -0.24
17402 H 26.774654961021753 85.60943711858991 95.44154487363858 H 0.0 **** 0.06
17403 H 25.77246968168428 84.47839452423665 94.50230982541773 H 0.0 **** 0.06
17404 H 25.089542156137245 85.29954586460724 95.92673315631312 H 0.0 **** 0.06
17405 H 26.323997094209 84.03351262981133 96.13506757973302 H 0.0 **** 0.06
17406 C 82.77313536412322 57.863655108735266 1.0018125775874864 C 0.0 **** -0.24
17407 H 83.07034052591952 57.00723972728481 1.6068005958369724 H 0.0 **** 0.06
17408 H 81.69431917113492 57.99796655462809 1.0679994088633151 H 0.0 **** 0.06
17409 H 83.05616724849358 57.68968221413259 -0.03649139214637387 H 0.0 **** 0.06
17410 H 83.27483945655905 58.758704538446906 1.3693656273638481 H 0.0 **** 0.06
17411 C 101.47089094184764 3.596735880726385 108.41495683493469 C 0.0 **** -0.24
17412 H 100.45993682828872 3.7473002865202147 108.03769854485893 H 0.0 **** 0.06
17413 H 102.1742460240255 3.6061559286563067 107.58175177651691 H 0.0 **** 0.06
17414 H 101.52783353027328 2.6373582419294337 108.92820313804629 H 0.0 **** 0.06
17415 H 101.72123942817339 4.397550915401553 109.11123384986155 H 0.0 **** 0.06
17416 C 45.127477338879515 4.4578371645692485 13.40435472848202 C 0.0 **** -0.24
17417 H 44.36480354001975 5.097863968648667 13.847841021964086 H 0.0 **** 0.06
17418 H 44.652642855172616 3.724079769569279 12.753519881895102 H 0.0 **** 0.06
17419 H 45.67350579136232 3.9421783472361955 14.19548666273323 H 0.0 **** 0.06
17420 H 45.8196859037736 5.066123760829175 12.822633640464403 H 0.0 **** 0.06
17421 C 28.351879908752863 13.22153182684167 48.07615742802939 C 0.0 **** -0.24
17422 H 27.77866091730138 12.309767197042731 47.90528019342063 H 0.0 **** 0.06
17423 H 27.70533883823458 13.978470893779672 48.52068262259349 H 0.0 **** 0.06
17424 H 28.741930821908625 13.588049203615867 47.12687190455412 H 0.0 **** 0.06
17425 H 29.180701905422268 13.007863978041485 48.75123956505905 H 0.0 **** 0.06
17426 C 2.6790372663102175 81.69037598860524 12.44447648830959 C 0.0 **** -0.24
17427 H 1.9184385946731481 81.55798637594032 13.213346007445665 H 0.0 **** 0.06
17428 H 2.289243406503317 82.33454200317891 11.656250867916384 H 0.0 **** 0.06
17429 H 2.9428404234743226 80.71988655081856 12.024352852558565 H 0.0 **** 0.06
17430 H 3.5643691134618507 82.14853169631908 12.884285028289867 H 0.0 **** 0.06
17431 C 0.5033797675292107 38.92986340641284 37.90339325243315 C 0.0 **** -0.24
17432 H -0.29105248457462096 39.531836316524995 37.46237654252127 H 0.0 **** 0.06
17433 H 0.3961292794913476 37.893777224301886 37.580562735207366 H 0.0 **** 0.06
17434 H 0.43633396898746923 38.980314540216064 38.990690973303856 H 0.0 **** 0.06
17435 H 1.471246662520855 39.313454231037056 37.58106194817384 H 0.0 **** 0.06
17436 C 42.851101799964965 45.059751077542785 29.609987597439783 C 0.0 **** -0.24
17437 H 42.78884712287186 44.305586496219746 30.394806618161027 H 0.0 **** 0.06
17438 H 42.702640426327605 46.048625437815645 30.045175501925428 H 0.0 **** 0.06
17439 H 42.07943887752944 44.87189476909839 28.862993550581393 H 0.0 **** 0.06
17440 H 43.83256736710277 45.01361645797391 29.137780351335778 H 0.0 **** 0.06
17441 C 86.88968020933481 101.10113299131334 50.83467137331026 C 0.0 **** -0.24
17442 H 87.07853998646351 101.86918040306234 50.08456545027864 H 0.0 **** 0.06
17443 H 85.85479676010233 100.76769646250716 50.760853794634706 H 0.0 **** 0.06
17444 H 87.07000894134131 101.51181837604007 51.82815051196996 H 0.0 **** 0.06
17445 H 87.55658133137646 100.25620301774 50.66447460118744 H 0.0 **** 0.06
17446 C 108.91024601195348 41.49045075829201 99.61314152710234 C 0.0 **** -0.24
17447 H 107.98228907271444 40.97467898371998 99.36754817624657 H 0.0 **** 0.06
17448 H 109.10563061891385 42.26073133157432 98.86622955769924 H 0.0 **** 0.06
17449 H 109.73285083513342 40.77568320483321 99.62238050837638 H 0.0 **** 0.06
17450 H 108.81993085693033 41.952033464807926 100.59681695442404 H 0.0 **** 0.06
17451 C 2.995484888647809 26.711769806974075 99.29490151097617 C 0.0 **** -0.24
17452 H 2.3099711038400415 25.895633478772993 99.06672159300317 H 0.0 **** 0.06
17453 H 2.480462336440837 27.66403078485598 99.16795847027042 H 0.0 **** 0.06
17454 H 3.850980806752318 26.667079521478968 98.62046895259257 H 0.0 **** 0.06
17455 H 3.339871540528975 26.61909151169374 100.32461616527071 H 0.0 **** 0.06
17456 C 92.37535926446537 45.25135822608172 39.794734544177686 C 0.0 **** -0.24
17457 H 92.94482374556037 44.73348567471692 40.56711981415299 H 0.0 **** 0.06
17458 H 91.3343340812358 44.93051915504145 39.835595309431085 H 0.0 **** 0.06
17459 H 92.79221416144418 45.014614837769955 38.81599388549813 H 0.0 **** 0.06
17460 H 92.43031491181813 46.327154556134815 39.96264192158429 H 0.0 **** 0.06
17461 C 58.372049815507495 87.21761970993393 74.69028317357424 C 0.0 **** -0.24
17462 H 59.193141002470725 87.62148326484783 75.28181438864226 H 0.0 **** 0.06
17463 H 58.21483699130803 87.843548131577 73.81138698299219 H 0.0 **** 0.06
17464 H 57.46352038326384 87.20232204382444 75.2929779753398 H 0.0 **** 0.06
17465 H 58.61586829623121 86.20367778812917 74.37491195857672 H 0.0 **** 0.06
17466 C 97.31866586151745 83.55611496256398 10.62626953538583 C 0.0 **** -0.24
17467 H 96.94913642341191 84.53496322246397 10.9307851773832 H 0.0 **** 0.06
17468 H 97.74936513343096 83.62624707431905 9.627373463990153 H 0.0 **** 0.06
17469 H 96.4949558253627 82.8429475814429 10.617339331951428 H 0.0 **** 0.06
17470 H 98.08270517233774 83.22186611274651 11.3284371724761 H 0.0 **** 0.06
17471 C 75.65062922385255 69.96728429051996 89.07646091893554 C 0.0 **** -0.24
17472 H 75.88590951731629 68.98145845920266 89.47709582287507 H 0.0 **** 0.06
17473 H 76.56884008319997 70.45367093764963 88.74589984764549 H 0.0 **** 0.06
17474 H 75.17847155109456 70.57112238212775 89.85190431553968 H 0.0 **** 0.06
17475 H 74.97060043127331 69.86311667418397 88.2314380535004 H 0.0 **** 0.06
17476 C 4.7699302127610395 87.687886522195 90.2949588445997 C 0.0 **** -0.24
17477 H 4.04287178046124 88.03486797197287 89.56047694558515 H 0.0 **** 0.06
17478 H 4.905306550297439 86.6110199510478 90.19173872485356 H 0.0 **** 0.06
17479 H 4.407960059819857 87.9140533471281 91.29875762527826 H 0.0 **** 0.06
17480 H 5.721876410436693 88.19205015698877 90.13056248519638 H 0.0 **** 0.06
17481 C 85.04970962173113 72.33783830662878 81.53016294743924 C 0.0 **** -0.24
17482 H 84.32074616054174 71.5450450035579 81.36223205985704 H 0.0 **** 0.06
17483 H 86.05190814424432 71.9547401820804 81.33843743717549 H 0.0 **** 0.06
17484 H 84.98246121587844 72.68043674896722 82.56283651709754 H 0.0 **** 0.06
17485 H 84.84265480979178 73.16956835380691 80.85650043280674 H 0.0 **** 0.06
17486 C 79.17852620378012 86.51741831149576 4.834110158540881 C 0.0 **** -0.24
17487 H 78.20416425980041 86.08693850069844 5.0629717205805775 H 0.0 **** 0.06
17488 H 79.22076254676017 86.78077692954625 3.776685399489594 H 0.0 **** 0.06
17489 H 79.9590127292238 85.791102041452 5.060168062364397 H 0.0 **** 0.06
17490 H 79.33037945561732 87.41317021117578 5.437388634806069 H 0.0 **** 0.06
17491 C 32.500740417163115 23.372481311773328 97.57434101854255 C 0.0 **** -0.24
17492 H 32.76822958226711 22.526760508666243 96.94082732248151 H 0.0 **** 0.06
17493 H 33.208322034727274 24.185095259044573 97.41329288595445 H 0.0 **** 0.06
17494 H 32.529983724616216 23.066239544372493 98.62046079469792 H 0.0 **** 0.06
17495 H 31.494996558466198 23.71075366183085 97.32367615500412 H 0.0 **** 0.06
17496 C 75.67590101033667 35.15799713050583 40.93752180447984 C 0.0 **** -0.24
17497 H 75.96846498221242 34.552059581169146 40.08007516840169 H 0.0 **** 0.06
17498 H 74.59268525372582 35.27928183076155 40.94418350926185 H 0.0 **** 0.06
17499 H 76.15196462486551 36.13591988324896 40.87050520873345 H 0.0 **** 0.06
17500 H 75.99147768328555 34.66283646911538 41.85652674300877 H 0.0 **** 0.06
17501 C 91.09784540302088 61.21314700570878 77.19511923775758 C 0.0 **** -0.24
17502 H 91.90667726758947 60.48262810265567 77.20298499819773 H 0.0 **** 0.06
17503 H 91.43649889606989 62.125003590851236 76.70118380266666 H 0.0 **** 0.06
17504 H 90.80522924615144 61.44185565199723 78.21922460456034 H 0.0 **** 0.06
17505 H 90.24420711681088 60.80305396030883 76.65521728777048 H 0.0 **** 0.06
17506 C 67.81219574624515 3.038210634284823 80.33765533931506 C 0.0 **** -0.24
17507 H 68.11699156950255 4.0440843109837346 80.04677143734597 H 0.0 **** 0.06
17508 H 67.52250900781712 2.4760098351796387 79.44993208078117 H 0.0 **** 0.06
17509 H 66.96707489252066 3.0993189623690682 81.02269782237428 H 0.0 **** 0.06
17510 H 68.643925618519 2.5363625267732033 80.83055243960533 H 0.0 **** 0.06
17511 C 11.157730180509247 42.382307732294464 10.090939071691878 C 0.0 **** -0.24
17512 H 11.241464306295128 42.247834537643826 11.169456247028734 H 0.0 **** 0.06
17513 H 12.04735158380376 42.88966076763023 9.718068616688413 H 0.0 **** 0.06
17514 H 10.275376383926172 42.981695984563714 9.867289303154337 H 0.0 **** 0.06
17515 H 11.06575800772201 41.40797862934909 9.610618689512933 H 0.0 **** 0.06
17516 C 109.77215422853399 18.890168364498322 101.90128653862318 C 0.0 **** -0.24
17517 H 108.86250068767504 18.452342610710218 102.31082251418422 H 0.0 **** 0.06
17518 H 110.43624660974208 18.09520101930721 101.56095729077 H 0.0 **** 0.06
17519 H 110.27261761927763 19.476010987178626 102.67270444148424 H 0.0 **** 0.06
17520 H 109.51837734740049 19.536289343667136 101.06087550237773 H 0.0 **** 0.06
17521 C 40.96041881406117 40.364227687935 12.799910410047545 C 0.0 **** -0.24
17522 H 41.14256006137089 39.484078298861675 13.416954472347868 H 0.0 **** 0.06
17523 H 40.512132249485376 40.05930185989115 11.854133933363272 H 0.0 **** 0.06
17524 H 41.904712956244026 40.87365166375491 12.606143668258966 H 0.0 **** 0.06
17525 H 40.284477363619544 41.04018685265399 13.322591039303774 H 0.0 **** 0.06
17526 C 48.2993637057994 7.084550055583321 25.580470162245042 C 0.0 **** -0.24
17527 H 47.93475985461551 7.726247883726387 26.383534753280387 H 0.0 **** 0.06
17528 H 47.56741851789549 6.302282373974833 25.37991533618609 H 0.0 **** 0.06
17529 H 49.244511741908994 6.630570450170126 25.880502670178977 H 0.0 **** 0.06
17530 H 48.451980922478796 7.680008439689402 24.681198261296778 H 0.0 **** 0.06
17531 C 63.722879443978286 1.1076570228639042 45.332958857404776 C 0.0 **** -0.24
17532 H 63.481180664693525 1.532181656541809 46.30692919822772 H 0.0 **** 0.06
17533 H 63.20625160331957 0.1545449255077216 45.214094211907366 H 0.0 **** 0.06
17534 H 64.79951975773807 0.9491911468129075 45.26310912513512 H 0.0 **** 0.06
17535 H 63.40437781709204 1.7937975126050105 44.54806543584684 H 0.0 **** 0.06
17536 C 95.55947066371417 23.046866706648558 28.379571340492816 C 0.0 **** -0.24
17537 H 95.67395039167195 21.980437586922733 28.573883094746805 H 0.0 **** 0.06
17538 H 96.53335958941696 23.533936072363815 28.44266337094959 H 0.0 **** 0.06
17539 H 94.88770126071746 23.48016441276755 29.11909117704647 H 0.0 **** 0.06
17540 H 95.14502605774386 23.191943074609014 27.382026234729267 H 0.0 **** 0.06
17541 C 61.68725972283565 63.12366716609711 60.5003811278674 C 0.0 **** -0.24
17542 H 60.5997154961524 63.19372269659118 60.522460795282655 H 0.0 **** 0.06
17543 H 61.98046787631141 62.109162824947475 60.232105886727766 H 0.0 **** 0.06
17544 H 62.08639516993573 63.36973430184767 61.48459991126367 H 0.0 **** 0.06
17545 H 62.08127918520536 63.82355993248865 59.76388164927698 H 0.0 **** 0.06
17546 C 93.34493680626706 105.55877487870237 20.78288977101255 C 0.0 **** -0.24
17547 H 92.91343097193521 106.55646962008085 20.701910439568806 H 0.0 **** 0.06
17548 H 92.86766843430345 104.89654053070736 20.060573150583792 H 0.0 **** 0.06
17549 H 93.1841191087215 105.17511977495576 21.789886846847963 H 0.0 **** 0.06
17550 H 94.4153598298622 105.6089062905957 20.579936095056865 H 0.0 **** 0.06
17551 C 57.957407916740046 48.67994374148827 32.63140469264114 C 0.0 **** -0.24
17552 H 58.39512555455936 48.177368459083596 31.76906944943918 H 0.0 **** 0.06
17553 H 58.751862781122284 49.08495319295787 33.2577644255916 H 0.0 **** 0.06
17554 H 57.368179040317415 47.96667284713823 33.207668252469034 H 0.0 **** 0.06
17555 H 57.31316808534506 49.49109958318098 32.290649613864666 H 0.0 **** 0.06
17556 C 100.46077736393461 32.523358485209855 30.536540440518564 C 0.0 **** -0.24
17557 H 100.3498688964411 32.667032365363326 31.611518524393574 H 0.0 **** 0.06
17558 H 99.98446230992742 33.350282774093245 30.00820341938237 H 0.0 **** 0.06
17559 H 99.98791063899897 31.585450735749077 30.244883351523697 H 0.0 **** 0.06
17560 H 101.5198920755489 32.4907486529722 30.28257722044046 H 0.0 **** 0.06
17561 C 75.490320029034 23.56884565357663 109.23272329880407 C 0.0 **** -0.24
17562 H 75.42451355723881 23.21013496682592 108.20545026164255 H 0.0 **** 0.06
17563 H 76.50240342041161 23.923367976626295 109.42916893412772 H 0.0 **** 0.06
17564 H 75.2520529878118 22.75407152324587 109.91742595903624 H 0.0 **** 0.06
17565 H 74.78405370659269 24.385366746015293 109.37885288972316 H 0.0 **** 0.06
17566 C 5.810046086708454 87.05502442612004 8.911933026049383 C 0.0 **** -0.24
17567 H 5.867465795927529 87.39551387539461 9.94564170245826 H 0.0 **** 0.06
17568 H 4.77301646834988 87.08067627916208 8.578287630553916 H 0.0 **** 0.06
17569 H 6.187750887023185 86.03462653040879 8.845352546558502 H 0.0 **** 0.06
17570 H 6.411912639743036 87.70739572466994 8.28001370742652 H 0.0 **** 0.06
17571 C 4.578622388080955 24.627729717643092 45.488294043208356 C 0.0 **** -0.24
17572 H 4.057565746688601 25.237447008013987 46.227284298474274 H 0.0 **** 0.06
17573 H 5.019309102527888 25.274090882941834 44.72959965779327 H 0.0 **** 0.06
17574 H 3.8711106939012225 23.944730069818434 45.01866292101789 H 0.0 **** 0.06
17575 H 5.365263241950901 24.05530975067967 45.98028012142075 H 0.0 **** 0.06
17576 C 78.17512914168196 51.047856993595246 64.49995522394968 C 0.0 **** -0.24
17577 H 77.21434590758032 51.4909192548115 64.76034934226523 H 0.0 **** 0.06
17578 H 78.6649426441444 51.662360840035035 63.74383318014307 H 0.0 **** 0.06
17579 H 78.01706575485505 50.04333896327665 64.10559714110047 H 0.0 **** 0.06
17580 H 78.80369819327579 50.99449497714025 65.38840225852525 H 0.0 **** 0.06
17581 C 63.49560127611531 95.88358033694766 97.4190953582282 C 0.0 **** -0.24
17582 H 64.13637228010944 95.34659166225185 96.71981829801832 H 0.0 **** 0.06
17583 H 63.9940912635945 95.95847242238972 98.3854243028205 H 0.0 **** 0.06
17584 H 62.55515116575019 95.34496775997735 97.53644451501249 H 0.0 **** 0.06
17585 H 63.29540821787539 96.88325763835917 97.03453622779266 H 0.0 **** 0.06
17586 C 89.98072255065745 56.54451416108673 98.15047707601809 C 0.0 **** -0.24
17587 H 90.24656200880926 55.55122180063436 98.51201462078456 H 0.0 **** 0.06
17588 H 90.78852896726909 57.24042719694142 98.37350060691267 H 0.0 **** 0.06
17589 H 89.06629692234247 56.87696244741125 98.64329419473586 H 0.0 **** 0.06
17590 H 89.8191280405872 56.5067565392971 97.0734658052379 H 0.0 **** 0.06
17591 C 61.16689987216523 66.6871336099585 103.33759524403771 C 0.0 **** -0.24
17592 H 60.68722061090182 66.86499193614921 104.29951202784017 H 0.0 **** 0.06
17593 H 62.24362508843808 66.8310781018883 103.4366892038594 H 0.0 **** 0.06
17594 H 60.772937992025845 67.38698720023874 102.60041294781941 H 0.0 **** 0.06
17595 H 60.96437275556576 65.66677250229509 103.01387676953367 H 0.0 **** 0.06
17596 C 77.28212113377134 73.35686074637124 94.97000147376558 C 0.0 **** -0.24
17597 H 77.79403294299406 74.31129061210265 94.84867693785196 H 0.0 **** 0.06
17598 H 77.6432814452291 72.65404545011415 94.21841536483085 H 0.0 **** 0.06
17599 H 76.20924731400426 73.50070383118236 94.84670667384891 H 0.0 **** 0.06
17600 H 77.48472746782473 72.96046382773795 95.9650878528659 H 0.0 **** 0.06
17601 C 4.473525019847926 89.09281116715164 51.44160675819105 C 0.0 **** -0.24
17602 H 5.05377619652684 88.86001631597148 52.33428634453558 H 0.0 **** 0.06
17603 H 4.154461565331772 90.134877834088 51.47761162724251 H 0.0 **** 0.06
17604 H 3.5980080529041345 88.44559540952719 51.39882250252363 H 0.0 **** 0.06
17605 H 5.088629340507822 88.93068952278588 50.55633505357487 H 0.0 **** 0.06
17606 C 77.03625744092533 63.72447405056988 25.16893210417834 C 0.0 **** -0.24
17607 H 76.77056616922061 62.6838704864964 24.98567804985686 H 0.0 **** 0.06
17608 H 77.07248846502293 64.26230282002012 24.221542923194875 H 0.0 **** 0.06
17609 H 78.01287985015088 63.769932546533255 25.650348662321676 H 0.0 **** 0.06
17610 H 76.28940712205768 64.18061413588572 25.81887945936967 H 0.0 **** 0.06
17611 C 75.33350697200558 51.70145702537807 32.90900891456323 C 0.0 **** -0.24
17612 H 75.64810279466008 52.43264421122137 33.652944695581084 H 0.0 **** 0.06
17613 H 76.17867414501961 51.06619854775725 32.64455318531799 H 0.0 **** 0.06
17614 H 74.9750855930146 52.220097055914245 32.02004921609989 H 0.0 **** 0.06
17615 H 74.53149255264987 51.0872335470457 33.3200468560355 H 0.0 **** 0.06
17616 C 34.48425504062649 73.45569405476044 73.78349482659306 C 0.0 **** -0.24
17617 H 35.019698416266095 73.6637323835721 72.85717675265363 H 0.0 **** 0.06
17618 H 35.057459512536184 73.83957186919503 74.62768509714519 H 0.0 **** 0.06
17619 H 34.350664326392916 72.37987833884557 73.89321609218314 H 0.0 **** 0.06
17620 H 33.5091293678783 73.94177010853952 73.75539295145788 H 0.0 **** 0.06
17621 C 33.81527992860844 60.45271921741727 48.06645259446017 C 0.0 **** -0.24
17622 H 33.40966824612345 60.78439778587514 47.111082938348034 H 0.0 **** 0.06
17623 H 33.4195224266729 61.077642697722325 48.86653717392346 H 0.0 **** 0.06
17624 H 34.90180092211896 60.531865695611486 48.04621272919351 H 0.0 **** 0.06
17625 H 33.52973187904153 59.41520331171873 48.240328394922216 H 0.0 **** 0.06
17626 C 36.07944950112241 77.2880333193134 79.94884983696477 C 0.0 **** -0.24
17627 H 35.95356453604532 76.55402285948404 79.152847098866 H 0.0 **** 0.06
17628 H 36.131809039797076 76.77507409729685 80.90958397608341 H 0.0 **** 0.06
17629 H 35.2327967227551 77.97416650038696 79.94742249029264 H 0.0 **** 0.06
17630 H 37.00071306950406 77.8471946945698 79.78541873363042 H 0.0 **** 0.06
17631 C 22.84054496985837 53.94353930877082 29.88047067421413 C 0.0 **** -0.24
17632 H 23.499986562517567 53.13378015596322 29.566541249830244 H 0.0 **** 0.06
17633 H 22.80253700818856 53.977733293299195 30.969756656456546 H 0.0 **** 0.06
17634 H 21.840190091437737 53.7712115277526 29.486147362649874 H 0.0 **** 0.06
17635 H 23.223359127567893 54.89046383467951 29.500390454897108 H 0.0 **** 0.06
17636 C 25.436981392972967 109.79292632987966 105.16498010908288 C 0.0 **** -0.24
17637 H 25.288714273391605 110.03127717587847 106.21707057377053 H 0.0 **** 0.06
17638 H 24.886847514344083 108.88482228552505 104.91713232620171 H 0.0 **** 0.06
17639 H 26.49911429414189 109.63838616279713 104.9729597770277 H 0.0 **** 0.06
17640 H 25.073834462450293 110.61749653558826 104.55115111140896 H 0.0 **** 0.06
17641 C 58.24901163367164 7.625574854433523 34.651644501036344 C 0.0 **** -0.24
17642 H 57.22380547958262 7.291660528503854 34.49287649795019 H 0.0 **** 0.06
17643 H 58.85660004435607 7.3551731344894336 33.78789686612612 H 0.0 **** 0.06
17644 H 58.65223010173166 7.147384904117075 35.54433256090738 H 0.0 **** 0.06
17645 H 58.26257487385394 8.707786104343214 34.78193491835111 H 0.0 **** 0.06
17646 C 45.897554991186766 63.98293576878257 40.593037475436034 C 0.0 **** -0.24
17647 H 45.01559550158224 63.96776387765142 41.232921039533736 H 0.0 **** 0.06
17648 H 46.46954252489927 63.06745255039799 40.74092737388577 H 0.0 **** 0.06
17649 H 46.51677730271692 64.84365756178431 40.84781484962943 H 0.0 **** 0.06
17650 H 45.5880482433505 64.05482724644285 39.550170301728 H 0.0 **** 0.06
17651 C 90.13458079073922 48.81054689630906 25.497959126265528 C 0.0 **** -0.24
17652 H 90.42687218645949 49.85282778297076 25.379426805763217 H 0.0 **** 0.06
17653 H 89.7812497842582 48.42120135184851 24.543357660599895 H 0.0 **** 0.06
17654 H 89.33646574528245 48.738632645938026 26.237216506789764 H 0.0 **** 0.06
17655 H 90.99321514569431 48.22781641300429 25.833179971855657 H 0.0 **** 0.06
17656 C 0.04788700073260088 9.177107811676763 96.21799001116864 C 0.0 **** -0.24
17657 H 0.4737252738880784 10.180123276351097 96.23728915200024 H 0.0 **** 0.06
17658 H 0.7724147266436034 8.467431842145942 96.61808294062944 H 0.0 **** 0.06
17659 H -0.196483771484111 8.906749517878055 95.19038547410528 H 0.0 **** 0.06
17660 H -0.8565156099201658 9.155345966723075 96.82479640350888 H 0.0 **** 0.06
17661 C 72.23523253803575 99.14557983168618 69.52903638473202 C 0.0 **** -0.24
17662 H 71.8966749319506 98.26990738908057 70.08432490089336 H 0.0 **** 0.06
17663 H 72.75676335719271 98.82362376013674 68.62673116473752 H 0.0 **** 0.06
17664 H 72.91204229748507 99.73064991134214 70.15124073519763 H 0.0 **** 0.06
17665 H 71.37439861750602 99.75454714479338 69.2538410363149 H 0.0 **** 0.06
17666 C 59.1765764389873 96.20356842069569 22.06102453824512 C 0.0 **** -0.24
17667 H 60.118529360096375 95.65583392776443 22.087526346314405 H 0.0 **** 0.06
17668 H 59.02960274838003 96.72008007858837 23.010077868068322 H 0.0 **** 0.06
17669 H 58.35560889739281 95.50500655929375 21.896752214264353 H 0.0 **** 0.06
17670 H 59.20150682537013 96.9313486841515 21.250670888141343 H 0.0 **** 0.06
17671 C 31.106199296506276 3.6106476742560574 110.50229551883251 C 0.0 **** -0.24
17672 H 30.09479022031931 4.001186762482575 110.39342590093455 H 0.0 **** 0.06
17673 H 31.138374111093626 2.9143934125738404 111.34110156402429 H 0.0 **** 0.06
17674 H 31.79584526254638 4.434863145181971 110.68829848400762 H 0.0 **** 0.06
17675 H 31.397471610246527 3.093329932998019 109.58853926540411 H 0.0 **** 0.06
17676 C 25.617497070539912 42.824704703545166 60.922626666814836 C 0.0 **** -0.24
17677 H 25.725152466096006 41.837321184583345 60.47195948340193 H 0.0 **** 0.06
17678 H 25.9965752575132 42.79960189711932 61.94491937192866 H 0.0 **** 0.06
17679 H 24.565423999968516 43.10616865246595 60.932673297994924 H 0.0 **** 0.06
17680 H 26.18362332044819 43.55276932383259 60.34286064555489 H 0.0 **** 0.06
17681 C 62.99630026176244 96.86151800739762 16.597211824112478 C 0.0 **** -0.24
17682 H 63.5738967836061 96.2195100178791 15.931324606787769 H 0.0 **** 0.06
17683 H 63.67384189829018 97.50052435240379 17.163339851195367 H 0.0 **** 0.06
17684 H 62.4178244688772 96.2445110816679 17.284084369291136 H 0.0 **** 0.06
17685 H 62.32049495332443 97.48031329354637 16.006252139802893 H 0.0 **** 0.06
17686 C 27.468443954258788 29.78639207026842 86.40218165227145 C 0.0 **** -0.24
17687 H 28.368686089021992 30.106747946580214 85.87794035997649 H 0.0 **** 0.06
17688 H 27.264408996055607 30.472100997298753 87.22543787555617 H 0.0 **** 0.06
17689 H 27.61474305384985 28.7798156387085 86.79493377567894 H 0.0 **** 0.06
17690 H 26.625196402163965 29.78797917208732 85.71095678516951 H 0.0 **** 0.06
17691 C 95.42626095121884 13.30777718793557 82.933178895791 C 0.0 **** -0.24
17692 H 95.1948052764281 12.577829756564295 82.15669592039848 H 0.0 **** 0.06
17693 H 94.59926962148819 13.356062412325645 83.64198256176815 H 0.0 **** 0.06
17694 H 95.57354304636613 14.28667784671828 82.47911049056142 H 0.0 **** 0.06
17695 H 96.33477083805545 13.007431715294008 83.4537872326149 H 0.0 **** 0.06
17696 C 58.85078219603919 10.505206570236112 8.751019828658002 C 0.0 **** -0.24
17697 H 59.74912399070439 10.631379479201144 8.146557125628249 H 0.0 **** 0.06
17698 H 58.72690452711167 9.452029845614959 9.00160275352431 H 0.0 **** 0.06
17699 H 57.98338225676795 10.850812721280164 8.188191710494209 H 0.0 **** 0.06
17700 H 58.9449872956977 11.08919188308353 9.666894993431413 H 0.0 **** 0.06
17701 C 23.619002068951158 58.261387722802866 90.81590663203215 C 0.0 **** -0.24
17702 H 24.51336922645152 57.66656186369634 91.00308395182934 H 0.0 **** 0.06
17703 H 23.252544829883224 58.671594419429866 91.75691262949337 H 0.0 **** 0.06
17704 H 22.850055312572913 57.630539832014264 90.36997215647702 H 0.0 **** 0.06
17705 H 23.860807221290752 59.07621880579961 90.13373048891316 H 0.0 **** 0.06
17706 C 8.644745898263409 31.169769302892462 53.81848610597689 C 0.0 **** -0.24
17707 H 8.576420607766096 31.46058320431996 54.86698011418244 H 0.0 **** 0.06
17708 H 9.214320492504612 31.919756296668652 53.269975390209595 H 0.0 **** 0.06
17709 H 7.642228028597202 31.094163734101585 53.39668582210834 H 0.0 **** 0.06
17710 H 9.144815905492464 30.204105239697128 53.74146236170844 H 0.0 **** 0.06
17711 C 98.0911945336801 74.81260666702036 84.04887098433835 C 0.0 **** -0.24
17712 H 98.38024466708924 74.10068574132197 83.27655027033472 H 0.0 **** 0.06
17713 H 97.13552835494065 75.26599586718623 83.78449785321175 H 0.0 **** 0.06
17714 H 98.85164508017576 75.58882668256223 84.13159439471701 H 0.0 **** 0.06
17715 H 97.99533214669898 74.29359746194046 85.00321978948932 H 0.0 **** 0.06
17716 C 19.78992276738973 48.5333644173148 89.9010353495758 C 0.0 **** -0.24
17717 H 20.266757647935993 47.6652752699587 90.35621933736815 H 0.0 **** 0.06
17718 H 20.42042445203728 49.411450613567354 90.04547584310285 H 0.0 **** 0.06
17719 H 18.819874970320555 48.70192081106154 90.36874225340227 H 0.0 **** 0.06
17720 H 19.653239396726324 48.3554613247243 88.83416286420129 H 0.0 **** 0.06
17721 C 38.70839186952327 13.29230671024122 47.5439307060534 C 0.0 **** -0.24
17722 H 39.353788623729 12.48122096419317 47.88162685758016 H 0.0 **** 0.06
17723 H 37.86981576642435 13.399124584295478 48.23128486604236 H 0.0 **** 0.06
17724 H 38.33466768053779 13.066669773390828 46.545149980767405 H 0.0 **** 0.06
17725 H 39.278194268782045 14.220958958863307 47.51749319613759 H 0.0 **** 0.06
17726 C 106.11765369953795 16.743382016031546 21.59739682650425 C 0.0 **** -0.24
17727 H 105.14157593257161 16.875011062271653 22.06502889398743 H 0.0 **** 0.06
17728 H 106.34842390311825 15.68043987765617 21.53299331369888 H 0.0 **** 0.06
17729 H 106.87675740390878 17.245900900277036 22.197146846871675 H 0.0 **** 0.06
17730 H 106.10097319320009 17.173633518073984 20.596304367613982 H 0.0 **** 0.06
17731 C 95.33222819149978 101.45183928641629 85.26127753148302 C 0.0 **** -0.24
17732 H 95.21115234547813 102.47733587782285 84.91246367591839 H 0.0 **** 0.06
17733 H 95.1258457677489 101.40528835714498 86.3304781816438 H 0.0 **** 0.06
17734 H 96.35483715096035 101.12274461996712 85.0738944993526 H 0.0 **** 0.06
17735 H 94.63794522577672 100.80201652176568 84.72777747434026 H 0.0 **** 0.06
17736 C 86.64088582354458 52.789720012595126 39.981670627881215 C 0.0 **** -0.24
17737 H 87.17259350936365 51.89874248637989 39.65024396828301 H 0.0 **** 0.06
17738 H 86.3855414183983 52.68932903426037 41.037250889974246 H 0.0 **** 0.06
17739 H 85.7277328643105 52.90661445000222 39.397062079776504 H 0.0 **** 0.06
17740 H 87.27594536022212 53.66425413751983 39.84218172468934 H 0.0 **** 0.06
17741 C 12.789348600627392 41.743615809334145 99.84157361754178 C 0.0 **** -0.24
17742 H 12.900222561242046 42.22454902531115 100.81352317750918 H 0.0 **** 0.06
17743 H 11.763406912231886 41.860994015162845 99.49260407566595 H 0.0 **** 0.06
17744 H 13.024099101053693 40.68211117533386 99.93263926101376 H 0.0 **** 0.06
17745 H 13.472190487887644 42.20554438657743 99.12769285904636 H 0.0 **** 0.06
17746 C 36.9215197191084 51.41818410320079 20.591635556113147 C 0.0 **** -0.24
17747 H 36.73837942552322 50.53837391697138 21.208064282832822 H 0.0 **** 0.06
17748 H 35.975748201408464 51.91471613372988 20.376561453455963 H 0.0 **** 0.06
17749 H 37.3939788855603 51.11521586818216 19.65685571438607 H 0.0 **** 0.06
17750 H 37.58010188150149 52.10399533715548 21.124535373986333 H 0.0 **** 0.06
17751 C 36.7740871502624 2.7946938381776363 87.9240666671244 C 0.0 **** -0.24
17752 H 37.33516995718293 2.03928148259439 88.4736555669304 H 0.0 **** 0.06
17753 H 35.87782929743217 2.3424406433784384 87.49850740979036 H 0.0 **** 0.06
17754 H 37.395588198612245 3.1952315380970333 87.12246340620965 H 0.0 **** 0.06
17755 H 36.489248970007196 3.60015604399689 88.60063414704291 H 0.0 **** 0.06
17756 C 61.28815194407444 38.8338646245403 0.6083124401422095 C 0.0 **** -0.24
17757 H 60.384319488685236 38.54438646329345 1.1458429939901125 H 0.0 **** 0.06
17758 H 61.238023255403064 39.89335173764539 0.3567574486649514 H 0.0 **** 0.06
17759 H 61.369621972662046 38.246186363166146 -0.3065316283077859 H 0.0 **** 0.06
17760 H 62.15909648117186 38.649743374871946 1.23781521335785 H 0.0 **** 0.06
17761 C 39.66085368971735 91.8382326185646 96.2929873306694 C 0.0 **** -0.24
17762 H 39.278246314019384 92.7701016119276 96.70999636572805 H 0.0 **** 0.06
17763 H 40.50187292082484 91.4913200697138 96.89261306677898 H 0.0 **** 0.06
17764 H 39.98935469777936 92.00758051501063 95.26799510430095 H 0.0 **** 0.06
17765 H 38.871759798429764 91.08597423716527 96.3015848267948 H 0.0 **** 0.06
17766 C 85.7676409956373 63.70698997248013 71.9557147013782 C 0.0 **** -0.24
17767 H 86.42774207050658 64.27449677420748 71.29972816691416 H 0.0 **** 0.06
17768 H 84.733346449056 63.998757318777336 71.76857189629406 H 0.0 **** 0.06
17769 H 86.02221323648956 63.91474017255052 72.99442953215137 H 0.0 **** 0.06
17770 H 85.88717470618673 62.64180873782709 71.75737315752544 H 0.0 **** 0.06
17771 C 42.78691259779086 3.288440754772651 71.26786033042532 C 0.0 **** -0.24
17772 H 43.12878423912235 4.266457059954632 71.60821114379087 H 0.0 **** 0.06
17773 H 41.707505681853945 3.3141549852857395 71.11467652763372 H 0.0 **** 0.06
17774 H 43.03024117924187 2.537711863816881 72.01799827451154 H 0.0 **** 0.06
17775 H 43.28156481982066 3.0384575902862423 70.32891498425266 H 0.0 **** 0.06
17776 C 22.489346402598343 106.88458012966373 24.75563726156929 C 0.0 **** -0.24
17777 H 23.327977559213082 106.65303024232583 25.411734913122075 H 0.0 **** 0.06
17778 H 21.750011490428108 107.46961547127711 25.304464528208456 H 0.0 **** 0.06
17779 H 22.03393510606348 105.95859330843888 24.40643012527562 H 0.0 **** 0.06
17780 H 22.845445220928482 107.45944125944601 23.900576410035 H 0.0 **** 0.06
17781 C 103.65044236947745 70.3910901679429 38.53268806373464 C 0.0 **** -0.24
17782 H 103.82472863751528 69.71988724912472 39.373178177073086 H 0.0 **** 0.06
17783 H 104.60564723477728 70.68689729634445 38.09928926090666 H 0.0 **** 0.06
17784 H 103.11826969522127 71.27672763716774 38.87995921498559 H 0.0 **** 0.06
17785 H 103.05123803551538 69.88019296176145 37.778207445689745 H 0.0 **** 0.06
17786 C 79.18895299384991 18.612508918531674 44.31517653856923 C 0.0 **** -0.24
17787 H 78.85508935323719 19.08002043880134 43.38854942467958 H 0.0 **** 0.06
17788 H 79.06276989426487 17.531866886942964 44.24248952813468 H 0.0 **** 0.06
17789 H 78.59745019915249 18.992919134267325 45.14718686264678 H 0.0 **** 0.06
17790 H 80.24062964084442 18.845892086754375 44.48123754239924 H 0.0 **** 0.06
17791 C 27.182987247589843 71.18428691470446 23.693132418567103 C 0.0 **** -0.24
17792 H 26.63145363026733 70.52359334514065 24.361844910437696 H 0.0 **** 0.06
17793 H 26.77605020741194 71.10224588597283 22.6851441943777 H 0.0 **** 0.06
17794 H 28.234817995395296 70.89760869654772 23.685294454127842 H 0.0 **** 0.06
17795 H 27.0888894024924 72.2131217428966 24.04059496732154 H 0.0 **** 0.06
17796 C 66.37205006167858 22.041904011507995 46.519692356998604 C 0.0 **** -0.24
17797 H 66.23230364619332 21.561994247274754 47.488150550107235 H 0.0 **** 0.06
17798 H 67.30754059852939 22.60322249096373 46.5236747143324 H 0.0 **** 0.06
17799 H 65.54132701006637 22.721254573730675 46.32749251348173 H 0.0 **** 0.06
17800 H 66.40804391178528 21.282057056221163 45.739080561791866 H 0.0 **** 0.06
17801 C 68.35404142997697 110.72920084475446 31.008291888739564 C 0.0 **** -0.24
17802 H 69.27028933577105 110.51379609967137 30.458205238355276 H 0.0 **** 0.06
17803 H 67.76402841150562 109.81679506786486 31.099588712119214 H 0.0 **** 0.06
17804 H 67.77819747495465 111.48335366739843 30.47354157246258 H 0.0 **** 0.06
17805 H 68.6060919508974 111.10002378946305 32.00176740774236 H 0.0 **** 0.06
17806 C 76.95702289959911 34.49512962209718 4.073574369028734 C 0.0 **** -0.24
17807 H 76.84665367201916 35.35268308449673 4.737075243138406 H 0.0 **** 0.06
17808 H 77.58920695674567 33.746522147813934 4.550777557980609 H 0.0 **** 0.06
17809 H 77.41541031021058 34.81518259879718 3.137955965379774 H 0.0 **** 0.06
17810 H 75.97630136515272 34.0653954747755 3.868924473800064 H 0.0 **** 0.06
17811 C 88.65733455349437 16.702833539755133 4.623970185254455 C 0.0 **** -0.24
17812 H 88.24800114506019 17.6474164815736 4.982871262988624 H 0.0 **** 0.06
17813 H 87.99551907076977 15.886843222119182 4.914447044706591 H 0.0 **** 0.06
17814 H 89.64389886330093 16.545763503700783 5.061002955396578 H 0.0 **** 0.06
17815 H 88.74215062644726 16.733993297441486 3.5384265619993673 H 0.0 **** 0.06
17816 C 28.102677461897002 24.7669166735915 84.57532354607903 C 0.0 **** -0.24
17817 H 28.162576830249947 24.104583004055176 83.71157594447378 H 0.0 **** 0.06
17818 H 27.970731867974763 24.172848924647152 85.48046589809985 H 0.0 **** 0.06
17819 H 27.256183582175254 25.442652483319154 84.4568756103008 H 0.0 **** 0.06
17820 H 29.023479402825444 25.346751165813224 84.65193667857511 H 0.0 **** 0.06
17821 C 73.7816657948038 44.53556721327635 16.84802176661944 C 0.0 **** -0.24
17822 H 73.55274438800056 45.49605659913726 16.386877715795208 H 0.0 **** 0.06
17823 H 73.74542937157894 44.6364287596879 17.933087497181447 H 0.0 **** 0.06
17824 H 74.77898527244963 44.215937308516686 16.54573660413368 H 0.0 **** 0.06
17825 H 73.04899915084592 43.794940860729184 16.52712468561961 H 0.0 **** 0.06
17826 C 99.73206444185847 19.779671931541685 83.09542337392386 C 0.0 **** -0.24
17827 H 98.87395283656288 19.207680036816384 82.74025784074865 H 0.0 **** 0.06
17828 H 99.38495491549139 20.701362704994352 83.56352045516098 H 0.0 **** 0.06
17829 H 100.38147694332746 20.021005593058845 82.25414982786828 H 0.0 **** 0.06
17830 H 100.28512133662821 19.18783760395158 83.82465167982406 H 0.0 **** 0.06
17831 C 47.001775422071034 106.03408527075776 74.54249521781706 C 0.0 **** -0.24
17832 H 47.54319277024325 106.85809704707127 75.00701708989294 H 0.0 **** 0.06
17833 H 45.934569634975105 106.25781016062245 74.53937142428963 H 0.0 **** 0.06
17834 H 47.1800543194845 105.11884859002475 75.10637743041096 H 0.0 **** 0.06
17835 H 47.349065701192046 105.9028800370832 73.51773994325757 H 0.0 **** 0.06
17836 C 5.571220368282823 82.0325132658175 42.78282094023123 C 0.0 **** -0.24
17837 H 5.107395860929003 81.06283093148096 42.603199929679846 H 0.0 **** 0.06
17838 H 6.17758018218872 81.98302722515905 43.68795502107892 H 0.0 **** 0.06
17839 H 4.797179223461782 82.78945580444747 42.90426215289801 H 0.0 **** 0.06
17840 H 6.205624825893139 82.2935803931216 41.93536078969444 H 0.0 **** 0.06
17841 C 78.47010283726608 93.473636420405 102.22720361865271 C 0.0 **** -0.24
17842 H 77.55205008672037 92.99366180654107 101.8873620695162 H 0.0 **** 0.06
17843 H 79.1989381504479 92.70939371407167 102.50031530296411 H 0.0 **** 0.06
17844 H 78.25355153133836 94.096605177377 103.09559422258957 H 0.0 **** 0.06
17845 H 78.87462106567047 94.09264552978772 101.42709900019827 H 0.0 **** 0.06
17846 C 74.00343474669421 34.85089805890027 26.055818881254595 C 0.0 **** -0.24
17847 H 73.21258198890496 34.605233637641916 25.347141496686675 H 0.0 **** 0.06
17848 H 73.74272548677916 35.76505258437632 26.58961373077568 H 0.0 **** 0.06
17849 H 74.93970341368924 34.997884412907624 25.51840779834623 H 0.0 **** 0.06
17850 H 74.11865609312005 34.03406264833902 26.768497420611993 H 0.0 **** 0.06
17851 C 59.741604653466496 47.59444380025445 72.2750609129181 C 0.0 **** -0.24
17852 H 59.15115119186673 46.827246420555184 71.77270775365315 H 0.0 **** 0.06
17853 H 59.416569094757364 48.579993153168175 71.93830847607995 H 0.0 **** 0.06
17854 H 60.79499071972667 47.4569941309158 72.03399237184925 H 0.0 **** 0.06
17855 H 59.60017857807824 47.51283439631527 73.35222721584603 H 0.0 **** 0.06
17856 C 50.48042475868101 11.274543650203334 5.031133353815434 C 0.0 **** -0.24
17857 H 51.34166361575251 10.661259597914398 5.2960239534025675 H 0.0 **** 0.06
17858 H 50.281663569094206 11.986313500898493 5.832891074659017 H 0.0 **** 0.06
17859 H 49.60938594203529 10.635315439110467 4.888093535248046 H 0.0 **** 0.06
17860 H 50.688985907841754 11.81528606288964 4.1075248519524195 H 0.0 **** 0.06
17861 C 54.00337770364726 48.790272658931364 4.191406017698455 C 0.0 **** -0.24
17862 H 53.70176984279277 47.74754394525282 4.299013389958276 H 0.0 **** 0.06
17863 H 55.051010441097866 48.8958555884932 4.473837676064363 H 0.0 **** 0.06
17864 H 53.38701772899663 49.41469098628973 4.839084892898683 H 0.0 **** 0.06
17865 H 53.87224780370603 49.10043861874233 3.154825220942314 H 0.0 **** 0.06
17866 C 105.23885716151727 9.521010151096135 45.2162862380887 C 0.0 **** -0.24
17867 H 105.71800940725427 8.62260660270367 45.605948840938666 H 0.0 **** 0.06
17868 H 105.43385039130023 9.60130585031115 44.14677794750378 H 0.0 **** 0.06
17869 H 105.64043738451272 10.39654223139624 45.725845460391184 H 0.0 **** 0.06
17870 H 104.16448005032127 9.46210898028886 45.38655995518502 H 0.0 **** 0.06
17871 C 107.59854686472386 101.88685083990231 75.65230505942354 C 0.0 **** -0.24
17872 H 107.12173161593387 101.92380958630008 74.67303493296914 H 0.0 **** 0.06
17873 H 108.54017863901288 101.3418556404914 75.57622197822157 H 0.0 **** 0.06
17874 H 106.94048891848576 101.37928822156624 76.35721684993746 H 0.0 **** 0.06
17875 H 107.79223966637153 102.90038775812218 76.00061475607691 H 0.0 **** 0.06
17876 C 83.91620679892783 105.22349018365838 93.26076241868822 C 0.0 **** -0.24
17877 H 84.35831253351148 104.53802795858303 93.9834655145392 H 0.0 **** 0.06
17878 H 82.83359235147664 105.23190787983145 93.38314208214621 H 0.0 **** 0.06
17879 H 84.16535331140243 104.89634455169477 92.25064779681509 H 0.0 **** 0.06
17880 H 84.30939743085342 106.22659149459685 93.42458120844725 H 0.0 **** 0.06
17881 C 68.99883149828065 88.4303118691046 85.69754603198368 C 0.0 **** -0.24
17882 H 68.41903014000775 88.8098511798668 84.85608240396695 H 0.0 **** 0.06
17883 H 68.35707873355295 88.36127156199726 86.57733503191963 H 0.0 **** 0.06
17884 H 69.82615125743087 89.10824717704725 85.90387923823039 H 0.0 **** 0.06
17885 H 69.38879337455717 87.44273105201398 85.45302292458118 H 0.0 **** 0.06
17886 C 37.69771925926799 10.550878446009094 92.40164608596615 C 0.0 **** -0.24
17887 H 38.02867623423028 11.57216928746368 92.5907392925904 H 0.0 **** 0.06
17888 H 37.61084298092765 10.015879740149842 93.34720973621359 H 0.0 **** 0.06
17889 H 38.42448593210604 10.046987006390253 91.76371395796218 H 0.0 **** 0.06
17890 H 36.72828406876763 10.569645852072512 91.90364013128055 H 0.0 **** 0.06
17891 C 108.25192896898933 83.82365856189767 90.98888177743223 C 0.0 **** -0.24
17892 H 107.99466907653941 84.56533270724117 90.233611315299 H 0.0 **** 0.06
17893 H 108.55757557291273 82.89807836794756 90.49985084942635 H 0.0 **** 0.06
17894 H 107.38430154695942 83.63255007878917 91.62042428446004 H 0.0 **** 0.06
17895 H 109.07236800733253 84.19803564014552 91.60203785589492 H 0.0 **** 0.06
17896 C 20.66386989233368 69.6938171061741 63.4433120230876 C 0.0 **** -0.24
17897 H 21.215888479292587 68.86533856564131 63.88699041080986 H 0.0 **** 0.06
17898 H 19.603851583275485 69.5910401114574 63.67740356663961 H 0.0 **** 0.06
17899 H 20.799293343997633 69.68267296228188 62.36176542962971 H 0.0 **** 0.06
17900 H 21.035358107848893 70.63551817551678 63.8465158140867 H 0.0 **** 0.06
17901 C 3.987039620085966 65.58043728224858 44.71377223494932 C 0.0 **** -0.24
17902 H 4.598240571810777 66.48313600112004 44.68699157132252 H 0.0 **** 0.06
17903 H 3.1722648301364984 65.67340238170418 43.99411858260714 H 0.0 **** 0.06
17904 H 3.5751242028078565 65.45003186292192 45.715017909702155 H 0.0 **** 0.06
17905 H 4.600964053981912 64.7177584819458 44.457583357762644 H 0.0 **** 0.06
17906 C 27.73380107105976 82.5552412120293 0.72221445429102 C 0.0 **** -0.24
17907 H 28.453090942778772 83.35394010799115 0.9114234297881012 H 0.0 **** 0.06
17908 H 28.080634402085423 81.63652568333188 1.1943776757883597 H 0.0 **** 0.06
17909 H 27.63981139971645 82.39906156635914 -0.35208743714650836 H 0.0 **** 0.06
17910 H 26.764890947139122 82.83484494544075 1.1351449864006895 H 0.0 **** 0.06
17911 C 20.495467032211394 17.763152424444485 90.34580805648221 C 0.0 **** -0.24
17912 H 20.766830008023135 16.723959220524222 90.5293844976346 H 0.0 **** 0.06
17913 H 21.370957411793228 18.39782052572849 90.48612117814093 H 0.0 **** 0.06
17914 H 19.713884644307598 18.063865028039544 91.04311473524399 H 0.0 **** 0.06
17915 H 20.13059905445462 17.868167274430903 89.32398567432176 H 0.0 **** 0.06
17916 C 106.45451815721813 35.61953194122903 81.24801370284757 C 0.0 **** -0.24
17917 H 107.05663552255152 36.134849447098375 80.50052242205922 H 0.0 **** 0.06
17918 H 106.81141751695807 34.594849005223445 81.35840179831332 H 0.0 **** 0.06
17919 H 105.411543527307 35.608536889846754 80.92982379847184 H 0.0 **** 0.06
17920 H 106.53799914267785 36.13826138466885 82.20297151128258 H 0.0 **** 0.06
17921 C 26.48090721948952 108.58624442726773 73.96513289813026 C 0.0 **** -0.24
17922 H 27.080826801800526 109.19651292068191 74.63965980866232 H 0.0 **** 0.06
17923 H 25.785148941509668 107.97941115817369 74.54461502476875 H 0.0 **** 0.06
17924 H 27.1344754704187 107.93588548440881 73.38451299223243 H 0.0 **** 0.06
17925 H 25.921832803651352 109.23493351750065 73.28949092075038 H 0.0 **** 0.06
17926 C 41.821394521440055 109.03270017004922 25.259793693415986 C 0.0 **** -0.24
17927 H 41.266490916138764 108.22976280217716 25.743563505768577 H 0.0 **** 0.06
17928 H 41.595923734112176 109.97801816669217 25.753678857506998 H 0.0 **** 0.06
17929 H 41.53277688934327 109.09287016242874 24.210653978354003 H 0.0 **** 0.06
17930 H 42.88978437023559 108.83109663344311 25.332138964177716 H 0.0 **** 0.06
17931 C 98.21645079670279 11.068387958450614 39.63176265949136 C 0.0 **** -0.24
17932 H 98.89919867214218 11.788393299111306 40.08335362386583 H 0.0 **** 0.06
17933 H 97.77198410774811 11.502942981354067 38.736467725863804 H 0.0 **** 0.06
17934 H 97.4302921802733 10.81809435000227 40.3431917893937 H 0.0 **** 0.06
17935 H 98.76576653549806 10.165493104864822 39.364259658588594 H 0.0 **** 0.06
17936 C 6.614919584880425 9.168808369942553 42.365640705402356 C 0.0 **** -0.24
17937 H 6.916044198104899 9.217100226725222 43.41135840956012 H 0.0 **** 0.06
17938 H 7.1866454860884375 9.896063664993903 41.788355673498586 H 0.0 **** 0.06
17939 H 5.551138701835086 9.393698016871099 42.283132177843925 H 0.0 **** 0.06
17940 H 6.8051674254247985 8.167518212091466 41.97837265426111 H 0.0 **** 0.06
17941 C 21.530668917637 53.43313586370067 101.05024403825195 C 0.0 **** -0.24
17942 H 20.603668347631753 52.86121937107691 101.00254466526115 H 0.0 **** 0.06
17943 H 21.32329305777199 54.479833529013035 100.8267982900658 H 0.0 **** 0.06
17944 H 22.238637840507863 53.03812003515361 100.32183534948763 H 0.0 **** 0.06
17945 H 21.955773893296225 53.35219520031569 102.05150733304257 H 0.0 **** 0.06
17946 C 25.806537788749324 86.09695327511972 53.55045209347923 C 0.0 **** -0.24
17947 H 26.566354281949543 86.76216193162077 53.95925524109494 H 0.0 **** 0.06
17948 H 24.988634020260974 85.99751197522623 54.26470319131861 H 0.0 **** 0.06
17949 H 26.246069307925495 85.1170908455587 53.360687881308586 H 0.0 **** 0.06
17950 H 25.425890633464974 86.51162576978443 52.617338933603634 H 0.0 **** 0.06
17951 C 52.65912416332938 97.51347190185318 100.71960767036994 C 0.0 **** -0.24
17952 H 52.18401117603804 98.46624290320284 100.48539235680035 H 0.0 **** 0.06
17953 H 53.42040709939397 97.66626844361748 101.48499990386749 H 0.0 **** 0.06
17954 H 53.1241110521365 97.10974648173537 99.81963946936335 H 0.0 **** 0.06
17955 H 51.90804380580124 96.81350840547618 101.08606113936776 H 0.0 **** 0.06
17956 C 68.12582164683857 6.524212646487854 68.4165331309603 C 0.0 **** -0.24
17957 H 68.38589063711927 6.053804647312859 69.36464396460609 H 0.0 **** 0.06
17958 H 67.3955845449371 7.314972336222979 68.59205145703575 H 0.0 **** 0.06
17959 H 67.70022537337242 5.778043842391753 67.74568616539814 H 0.0 **** 0.06
17960 H 69.02217626733615 6.9507764191009755 67.96479698791691 H 0.0 **** 0.06
17961 C 70.8913829661958 12.031056236570976 47.54885087174983 C 0.0 **** -0.24
17962 H 71.51431904441438 12.794162346137043 47.081548536616 H 0.0 **** 0.06
17963 H 70.67370629205007 12.319015746128201 48.577471759811 H 0.0 **** 0.06
17964 H 71.41924685235743 11.077472042494634 47.54132557334653 H 0.0 **** 0.06
17965 H 69.95865943841443 11.933949546324286 46.99288966538173 H 0.0 **** 0.06
17966 C 101.47289238099654 65.72416539923438 106.97908672314995 C 0.0 **** -0.24
17967 H 100.89933421705223 64.98756089886041 106.4154036257663 H 0.0 **** 0.06
17968 H 101.95588990519241 66.41380822081413 106.28681950356247 H 0.0 **** 0.06
17969 H 102.2315461295658 65.214287170675 107.57359699001574 H 0.0 **** 0.06
17970 H 100.80467962890236 66.27680190743934 107.6384487388024 H 0.0 **** 0.06
17971 C 101.0638110744798 31.088901960870572 19.285272541644197 C 0.0 **** -0.24
17972 H 101.76220083664238 30.96810206536179 18.45670516631602 H 0.0 **** 0.06
17973 H 100.60238320635133 32.07507053704862 19.23119290553267 H 0.0 **** 0.06
17974 H 101.5999053596693 30.988480046215614 20.228847697002518 H 0.0 **** 0.06
17975 H 100.29137404767201 30.322370411387993 19.222893410808652 H 0.0 **** 0.06
17976 C 97.71757031607807 9.671488463619198 90.62636594483894 C 0.0 **** -0.24
17977 H 97.97994362509336 10.381601333486799 89.84138075335949 H 0.0 **** 0.06
17978 H 98.22743248724052 8.725404667654686 90.44418264330102 H 0.0 **** 0.06
17979 H 96.63924318215079 9.51002014348694 90.62428172179739 H 0.0 **** 0.06
17980 H 98.02394765175777 10.070050922089422 91.5939886359883 H 0.0 **** 0.06
17981 C 53.41881830945718 10.61361774009923 90.42484308474049 C 0.0 **** -0.24
17982 H 54.31838724286448 10.295200243126729 90.95150403600145 H 0.0 **** 0.06
17983 H 52.67012124911261 9.823755636553017 90.47527367262549 H 0.0 **** 0.06
17984 H 53.66149335462476 10.819133620971058 89.38218936245318 H 0.0 **** 0.06
17985 H 53.02598668458926 11.518102242880403 90.8911315336193 H 0.0 **** 0.06
17986 C 71.04186272521784 46.03531538460409 91.50764438268354 C 0.0 **** -0.24
17987 H 70.72731075530714 46.00306132649811 92.55079033003014 H 0.0 **** 0.06
17988 H 70.85229155031652 45.068883770119676 91.04079384492627 H 0.0 **** 0.06
17989 H 72.10690005998782 46.26232250626018 91.45529939352079 H 0.0 **** 0.06
17990 H 70.47915411419149 46.80856705746068 90.98314111317092 H 0.0 **** 0.06
17991 C 71.32139523934387 52.99383119181057 4.616272205800868 C 0.0 **** -0.24
17992 H 70.32004536003873 52.965276528423466 4.1871151697457805 H 0.0 **** 0.06
17993 H 71.29219801295594 52.60351656175273 5.633568496306083 H 0.0 **** 0.06
17994 H 71.68065985358021 54.022761686443665 4.631689765269968 H 0.0 **** 0.06
17995 H 71.99383230812293 52.384159927912286 4.0114845178227085 H 0.0 **** 0.06
17996 C 4.882248612387471 3.194911997608699 103.80176784889589 C 0.0 **** -0.24
17997 H 4.357852131259051 3.209289796975497 104.75706378496675 H 0.0 **** 0.06
17998 H 5.391613420307223 4.147321296273844 103.6517751861676 H 0.0 **** 0.06
17999 H 4.164603838292564 3.0362530022309784 102.99658584872031 H 0.0 **** 0.06
18000 H 5.6137831697620015 2.387314139937587 103.8010023489028 H 0.0 **** 0.06
18001 C 83.32797394223162 12.665363464311493 72.33643050624806 C 0.0 **** -0.24
18002 H 83.27566445130095 12.881420053523666 71.26950690021422 H 0.0 **** 0.06
18003 H 82.50505018182808 12.006789980427154 72.61483704222516 H 0.0 **** 0.06
18004 H 83.25429983094914 13.596279332452955 72.899536672745 H 0.0 **** 0.06
18005 H 84.27643181666892 12.178614848431188 72.5621142303294 H 0.0 **** 0.06
18006 C 13.60167464527693 17.585386814542446 12.112135575227935 C 0.0 **** -0.24
18007 H 13.39169201210305 17.569474107419424 13.181075122045922 H 0.0 **** 0.06
18008 H 13.251384799184095 16.657709742098206 11.659546350999246 H 0.0 **** 0.06
18009 H 14.675991044996465 17.683597621741313 11.954875713826748 H 0.0 **** 0.06
18010 H 13.089166733708225 18.42999585706987 11.65326428424611 H 0.0 **** 0.06
18011 C 59.0338848779907 88.11223711173976 51.30607301080909 C 0.0 **** -0.24
18012 H 58.616739960133415 89.05458042149753 51.66279137938369 H 0.0 **** 0.06
18013 H 60.082533964885414 88.2560448514423 51.04252748576195 H 0.0 **** 0.06
18014 H 58.48038020551098 87.78103676232399 50.427054427581254 H 0.0 **** 0.06
18015 H 58.95582804007714 87.35993050665567 52.09018497526938 H 0.0 **** 0.06
18016 C 91.8536329025914 18.294951355117888 76.91230183106266 C 0.0 **** -0.24
18017 H 92.1479964537436 18.868579372984584 76.0339342060194 H 0.0 **** 0.06
18018 H 90.85954298543874 18.607305346124917 77.23345443301214 H 0.0 **** 0.06
18019 H 92.56771043731594 18.470543669385478 77.7178609064262 H 0.0 **** 0.06
18020 H 91.83987429488826 17.233470097303353 76.66475794162575 H 0.0 **** 0.06
18021 C 77.04902420797742 6.1918533666055 93.07552697117843 C 0.0 **** -0.24
18022 H 76.39740331019601 5.382613740113541 93.40585739533218 H 0.0 **** 0.06
18023 H 76.44196990407124 7.016299497016931 92.70105748029725 H 0.0 **** 0.06
18024 H 77.70233893622418 5.83169552379313 92.28178718498769 H 0.0 **** 0.06
18025 H 77.6525654521119 6.536509830876668 93.91501943971207 H 0.0 **** 0.06
18026 C 100.96543105432937 24.23455339974521 108.015388632556 C 0.0 **** -0.24
18027 H 101.685359915616 23.435390254355212 107.8340229204793 H 0.0 **** 0.06
18028 H 100.16601424213748 24.176593091240107 107.27627083007808 H 0.0 **** 0.06
18029 H 101.4662212031274 25.198730460436394 107.93544183904666 H 0.0 **** 0.06
18030 H 100.5458042105267 24.124560013052047 109.01507631948043 H 0.0 **** 0.06
18031 C 65.22528817678015 70.76535426237814 79.90842836083101 C 0.0 **** -0.24
18032 H 65.12343891851866 71.43856231807162 80.75978574094006 H 0.0 **** 0.06
18033 H 66.28265625967455 70.63221410559858 79.67513182806583 H 0.0 **** 0.06
18034 H 64.71405172473784 71.19067918234234 79.04524779093556 H 0.0 **** 0.06
18035 H 64.78321166790819 69.79982977114632 80.15389025151785 H 0.0 **** 0.06
18036 C 103.9435232788212 11.727160425043877 75.91962183820493 C 0.0 **** -0.24
18037 H 104.01515001898169 10.640944009582682 75.98363191940317 H 0.0 **** 0.06
18038 H 104.06401844825726 12.158484961125154 76.91314021608318 H 0.0 **** 0.06
18039 H 102.96724710663965 12.003049548793399 75.51977710677912 H 0.0 **** 0.06
18040 H 104.72527736036017 12.104684795000836 75.26019052370481 H 0.0 **** 0.06
18041 C 62.4552686575752 21.65784759884923 51.67795575621133 C 0.0 **** -0.24
18042 H 62.2559402769611 21.35236070259134 50.65086098044451 H 0.0 **** 0.06
18043 H 61.52356353582897 21.96946757805202 52.150982529608456 H 0.0 **** 0.06
18044 H 63.15929110079577 22.48978040903114 51.680172417404066 H 0.0 **** 0.06
18045 H 62.88115932817493 20.82060048403531 52.230079919945766 H 0.0 **** 0.06
18046 C 84.81698616327566 53.29823362350808 58.06912103564616 C 0.0 **** -0.24
18047 H 85.78943321083136 52.828899929827685 58.22017860016729 H 0.0 **** 0.06
18048 H 84.72276275282661 54.15772447183372 58.73359918743046 H 0.0 **** 0.06
18049 H 84.02782662085002 52.579898565590696 58.289011108273144 H 0.0 **** 0.06
18050 H 84.73068177875456 53.62824134619984 57.03350468497405 H 0.0 **** 0.06
18051 C 68.92018530034034 5.851835542585933 86.26379662019849 C 0.0 **** -0.24
18052 H 69.251780473091 6.218656796768379 85.29229028851637 H 0.0 **** 0.06
18053 H 67.83833952462624 5.959859195765494 86.34170901379224 H 0.0 **** 0.06
18054 H 69.40116017478113 6.429353676185773 87.05251688052101 H 0.0 **** 0.06
18055 H 69.1900681154602 4.801390233790908 86.36644449435727 H 0.0 **** 0.06
18056 C 50.556251134562956 97.07079479648723 13.700268424408534 C 0.0 **** -0.24
18057 H 50.99835761333486 96.49755649424135 14.515926137643476 H 0.0 **** 0.06
18058 H 51.33406086633431 97.34106743956514 12.985130312232627 H 0.0 **** 0.06
18059 H 50.098188331288725 97.9758224445452 14.098127834688967 H 0.0 **** 0.06
18060 H 49.79775041229237 96.4679117776227 13.202182698618685 H 0.0 **** 0.06
18061 C 110.8164977129054 7.7942412260392615 106.14371389046964 C 0.0 **** -0.24
18062 H 110.55388361443397 7.369526670147209 105.17514944704521 H 0.0 **** 0.06
18063 H 111.02330803717797 8.858730812960701 106.02885662651764 H 0.0 **** 0.06
18064 H 111.70305711613491 7.2914601822647285 106.53199916022743 H 0.0 **** 0.06
18065 H 109.98759964265287 7.657363506420751 106.83811809975381 H 0.0 **** 0.06
18066 C 5.688364363266487 11.756567452346303 71.8789831540436 C 0.0 **** -0.24
18067 H 6.584535329508043 11.478020236695542 71.32408694234505 H 0.0 **** 0.06
18068 H 5.891098691946979 11.695590899471469 72.94923615790191 H 0.0 **** 0.06
18069 H 4.876987258954415 11.075289530856153 71.62358288011654 H 0.0 **** 0.06
18070 H 5.402565703330538 12.77576817217377 71.62059061161813 H 0.0 **** 0.06
18071 C 30.105273325357132 104.86004320792031 102.84445227268178 C 0.0 **** -0.24
18072 H 29.776128690643645 105.87711817039971 102.6345689768278 H 0.0 **** 0.06
18073 H 31.063365410941316 104.88787491691137 103.36219218450132 H 0.0 **** 0.06
18074 H 30.213072701819613 104.31358190401006 101.90772763384976 H 0.0 **** 0.06
18075 H 29.366639260453127 104.36192703661864 103.47216694583473 H 0.0 **** 0.06
18076 C 33.59053466616524 6.96043296769389 27.448090917543198 C 0.0 **** -0.24
18077 H 33.11398845882309 7.795550614545974 26.935137765052616 H 0.0 **** 0.06
18078 H 33.22155904139997 6.021711125953971 27.034366317806416 H 0.0 **** 0.06
18079 H 33.35668245595417 7.006584813816232 28.51195317773829 H 0.0 **** 0.06
18080 H 34.67048666428154 7.0186046521836545 27.310520957258916 H 0.0 **** 0.06
18081 C 21.152322009997732 49.94942479197363 10.252048728615264 C 0.0 **** -0.24
18082 H 20.98477509724202 51.02226422419696 10.345495508657606 H 0.0 **** 0.06
18083 H 21.103128611716073 49.66519725168831 9.200941958070956 H 0.0 **** 0.06
18084 H 20.38575026048136 49.41288667632773 10.811240413124693 H 0.0 **** 0.06
18085 H 22.135533729983024 49.69974248818164 10.651037700253937 H 0.0 **** 0.06
18086 C 98.69768544318617 2.3157355351783053 9.303965302186555 C 0.0 **** -0.24
18087 H 98.79288318649839 2.5811504375330685 10.356892675816255 H 0.0 **** 0.06
18088 H 99.68811569589315 2.26155891730059 8.852229170299466 H 0.0 **** 0.06
18089 H 98.10410217118539 3.072812014597332 8.790593231197576 H 0.0 **** 0.06
18090 H 98.20432707913852 1.3478253978098849 9.217200066003073 H 0.0 **** 0.06
18091 C 106.10719918751244 82.60183839270516 87.61954838730838 C 0.0 **** -0.24
18092 H 106.23903537821445 82.81889841342483 86.55943805841184 H 0.0 **** 0.06
18093 H 106.97538730852845 82.05357271875391 87.987889215238 H 0.0 **** 0.06
18094 H 105.21042529155352 81.99718997729305 87.7578185801832 H 0.0 **** 0.06
18095 H 106.0057847222539 83.53582164655373 88.17158831530662 H 0.0 **** 0.06
18096 C 101.07716053832314 77.43154312367778 35.30930611902801 C 0.0 **** -0.24
18097 H 100.7970592332264 77.60993453338119 36.347189284128106 H 0.0 **** 0.06
18098 H 100.54238489552856 76.5587748935971 34.93323110993131 H 0.0 **** 0.06
18099 H 102.15034227465655 77.25572354494739 35.24734575850458 H 0.0 **** 0.06
18100 H 100.81661785679843 78.30425696961191 34.70864906502638 H 0.0 **** 0.06
18101 C 57.22518970538334 88.92193558713998 0.4851523970168614 C 0.0 **** -0.24
18102 H 56.44941055392428 88.18614333181178 0.6960698623818331 H 0.0 **** 0.06
18103 H 57.88935560231198 89.00736773377342 1.345106891817096 H 0.0 **** 0.06
18104 H 56.762993059914834 89.8893676525347 0.2846598179401525 H 0.0 **** 0.06
18105 H 57.79886992700705 88.60628992976879 -0.3869442799493754 H 0.0 **** 0.06
18106 C 10.928806283054001 74.03159882458597 62.0672821536932 C 0.0 **** -0.24
18107 H 11.225776489941012 75.02136743925038 62.41395276532157 H 0.0 **** 0.06
18108 H 9.982073376855737 74.10435666150047 61.530857046218486 H 0.0 **** 0.06
18109 H 10.812374122927679 73.36697169167289 62.92260431269791 H 0.0 **** 0.06
18110 H 11.694567885716452 73.63561284788388 61.40064133514832 H 0.0 **** 0.06
18111 C 93.68243326272705 81.85504591708728 109.74965266304534 C 0.0 **** -0.24
18112 H 92.73142625042237 81.8547674528689 109.21695169540646 H 0.0 **** 0.06
18113 H 93.84719806205658 80.87495698610202 110.19763814901945 H 0.0 **** 0.06
18114 H 93.65984102110428 82.61306579959188 110.53264767217024 H 0.0 **** 0.06
18115 H 94.4895503795866 82.07738636354074 109.05159863945369 H 0.0 **** 0.06
18116 C 74.56059271825328 81.77371727255897 97.15767453319955 C 0.0 **** -0.24
18117 H 74.21443602921192 82.77858865718645 96.92020311966616 H 0.0 **** 0.06
18118 H 75.34163815393643 81.8292723616265 97.91666889811506 H 0.0 **** 0.06
18119 H 74.96114126992123 81.30503864885179 96.25804460700749 H 0.0 **** 0.06
18120 H 73.72745819328185 81.18125372961501 97.53535101967196 H 0.0 **** 0.06
18121 C 54.533577850786514 27.80530603854328 62.32587718717201 C 0.0 **** -0.24
18122 H 54.600983114647306 27.049267716622012 63.10832931437119 H 0.0 **** 0.06
18123 H 53.62590227091985 27.646833857860173 61.7438992489798 H 0.0 **** 0.06
18124 H 55.40341256989208 27.730161189188664 61.67322295208271 H 0.0 **** 0.06
18125 H 54.50547861891377 28.79622111970292 62.78035218600169 H 0.0 **** 0.06
18126 C 71.26283213067728 99.7224832719412 98.93612430562905 C 0.0 **** -0.24
18127 H 71.99191392220484 98.9345011996801 98.74746661272184 H 0.0 **** 0.06
18128 H 71.7574597789901 100.56915773884727 99.41118379959471 H 0.0 **** 0.06
18129 H 70.4799473814428 99.34270691243131 99.59343030181321 H 0.0 **** 0.06
18130 H 70.82094771448902 100.04079913735217 97.99195276319796 H 0.0 **** 0.06
18131 C 56.12400013491691 90.08484191387802 71.90509496125037 C 0.0 **** -0.24
18132 H 56.809486328511326 90.61226595127845 71.24163561649144 H 0.0 **** 0.06
18133 H 55.262916872310086 90.71901019944296 72.11606162721279 H 0.0 **** 0.06
18134 H 56.6351097217011 89.84300163829003 72.83698336919133 H 0.0 **** 0.06
18135 H 55.789739706708076 89.16504066745345 71.42384717849797 H 0.0 **** 0.06
18136 C 62.84655270570414 90.03313106937281 94.69227242793716 C 0.0 **** -0.24
18137 H 61.89712124528984 89.55992938646318 94.44423666707155 H 0.0 **** 0.06
18138 H 62.744147889232465 90.58901897752986 95.62450986665732 H 0.0 **** 0.06
18139 H 63.133171405692394 90.71543446155908 93.89162983320853 H 0.0 **** 0.06
18140 H 63.61444004705413 89.26712801303859 94.80779369712786 H 0.0 **** 0.06
18141 C 98.50880263987199 53.31563694168554 55.067387717664246 C 0.0 **** -0.24
18142 H 97.54776946093448 53.588784611946124 54.63054866576704 H 0.0 **** 0.06
18143 H 99.13741984892232 54.2027570894837 55.1457202680499 H 0.0 **** 0.06
18144 H 98.99884739059081 52.57753982279124 54.43266218459058 H 0.0 **** 0.06
18145 H 98.34927721506172 52.89341992269496 56.0594361782222 H 0.0 **** 0.06
18146 C 38.21769655152333 101.73771083305567 54.86173215956467 C 0.0 **** -0.24
18147 H 38.1046449438748 102.82204476456404 54.850914595484596 H 0.0 **** 0.06
18148 H 39.06729679133639 101.45480191799649 54.240012186654326 H 0.0 **** 0.06
18149 H 37.310998162453885 101.27565485179929 54.471584727612594 H 0.0 **** 0.06
18150 H 38.38680937260304 101.40055485361502 55.88458280891598 H 0.0 **** 0.06
18151 C 98.5154735819034 62.46329660161729 11.96579880505249 C 0.0 **** -0.24
18152 H 98.78861769571233 61.98615763717626 11.024620589918317 H 0.0 **** 0.06
18153 H 97.87239882340248 63.32104900966473 11.76497682111793 H 0.0 **** 0.06
18154 H 99.417124543549 62.79632220476083 12.478568888034197 H 0.0 **** 0.06
18155 H 97.98276701023781 61.7484415614494 12.594288102347257 H 0.0 **** 0.06
18156 C 93.8142570332649 18.841427764863454 88.96416367975502 C 0.0 **** -0.24
18157 H 94.54058562754436 19.183006632652706 89.70172139813323 H 0.0 **** 0.06
18158 H 93.3547175955974 19.703831246642437 88.48151529871265 H 0.0 **** 0.06
18159 H 93.04463236473285 18.248888434132482 89.45967935665796 H 0.0 **** 0.06
18160 H 94.31773110893948 18.230234867956653 88.21446648804178 H 0.0 **** 0.06
18161 C 70.42146319737377 75.65816588118315 105.3107964527387 C 0.0 **** -0.24
18162 H 70.65197276567746 76.30062473849944 106.16149778792082 H 0.0 **** 0.06
18163 H 71.3081160859954 75.08360932538267 105.03952861615275 H 0.0 **** 0.06
18164 H 70.11333974083716 76.27215475057923 104.4653739174735 H 0.0 **** 0.06
18165 H 69.61390771547686 74.9769344686701 105.57910158395642 H 0.0 **** 0.06
18166 C 63.988869859066824 89.1437733616981 36.011483482007776 C 0.0 **** -0.24
18167 H 63.09167570023567 88.64443309078348 36.37786400634897 H 0.0 **** 0.06
18168 H 63.884566489456404 90.22085925152697 36.144056285566506 H 0.0 **** 0.06
18169 H 64.12315380692118 88.91826044533462 34.954042502207955 H 0.0 **** 0.06
18170 H 64.85497282640915 88.79024338767192 36.57141469766742 H 0.0 **** 0.06
18171 C 80.81051266839972 18.11239489447823 0.04467223600813863 C 0.0 **** -0.24
18172 H 80.92265639692596 18.444095851346646 -0.9872792949029519 H 0.0 **** 0.06
18173 H 79.95616740970183 18.615949694262213 0.4972332633847172 H 0.0 **** 0.06
18174 H 81.71453322268792 18.35580896631933 0.6045733468069381 H 0.0 **** 0.06
18175 H 80.65147239973766 17.034801558726627 0.06450823226431535 H 0.0 **** 0.06
18176 C 20.881116524704275 106.47204252952254 63.284212790418565 C 0.0 **** -0.24
18177 H 21.31158018485241 107.21606546673019 62.61474091971991 H 0.0 **** 0.06
18178 H 20.482635267178296 106.96662109032384 64.17052792002889 H 0.0 **** 0.06
18179 H 21.6523350365281 105.76082749222445 63.58100217533439 H 0.0 **** 0.06
18180 H 20.07762339656126 105.94328276397913 62.77041060147502 H 0.0 **** 0.06
18181 C 63.75712617422744 0.7148016528490251 102.59506422005703 C 0.0 **** -0.24
18182 H 63.620398725254745 0.48641721088855316 101.53830887601131 H 0.0 **** 0.06
18183 H 63.34779016256391 -0.09481296398037209 103.19859540590282 H 0.0 **** 0.06
18184 H 63.24031265587769 1.6448539152287465 102.83471475695016 H 0.0 **** 0.06
18185 H 64.8211364594282 0.8252171016219076 102.80736433241847 H 0.0 **** 0.06
18186 C 95.31253728181109 108.80869844547146 92.80953544513804 C 0.0 **** -0.24
18187 H 96.26132955413489 109.14652147495252 93.22554328265943 H 0.0 **** 0.06
18188 H 94.56291730477344 108.76900192332471 93.60037667435634 H 0.0 **** 0.06
18189 H 95.43901214943402 107.81579475262589 92.37741495213686 H 0.0 **** 0.06
18190 H 94.98829020958097 109.5032969595186 92.0348958834976 H 0.0 **** 0.06
18191 C 60.494941843717015 38.20025629231009 10.26163426019996 C 0.0 **** -0.24
18192 H 60.01827822563189 38.364712635839055 11.22779709277857 H 0.0 **** 0.06
18193 H 59.78436675688039 38.414822791513984 9.464004679365845 H 0.0 **** 0.06
18194 H 60.82108042872346 37.16268604223089 10.189347792753946 H 0.0 **** 0.06
18195 H 61.35862298048454 38.859347202076805 10.166408925531247 H 0.0 **** 0.06
18196 C 4.408026922620934 86.75739092688121 71.84044840321329 C 0.0 **** -0.24
18197 H 4.079997242105009 86.2197753723164 70.95022830266589 H 0.0 **** 0.06
18198 H 4.091145668829725 87.79814886538264 71.77238282953749 H 0.0 **** 0.06
18199 H 5.494666349049837 86.71138939333878 71.91220037162945 H 0.0 **** 0.06
18200 H 3.965464053283725 86.2990108864791 72.72531823577596 H 0.0 **** 0.06
18201 C 13.20105792632873 25.370992323964288 92.26119750231217 C 0.0 **** -0.24
18202 H 13.612049854347323 24.370234879686137 92.12428892526948 H 0.0 **** 0.06
18203 H 13.912915853691008 26.108499804283042 91.89127628197798 H 0.0 **** 0.06
18204 H 13.014310911885946 25.544600020778006 93.32068682424543 H 0.0 **** 0.06
18205 H 12.26598229303687 25.457846068815897 91.70812634641113 H 0.0 **** 0.06
18206 C 94.20683395384013 93.81026898562105 61.34980321214317 C 0.0 **** -0.24
18207 H 93.90048943152594 93.09411760072258 62.11313343177895 H 0.0 **** 0.06
18208 H 93.33281216761274 94.35475497250036 60.99037904407329 H 0.0 **** 0.06
18209 H 94.6705453428523 93.27805334849559 60.51909146417225 H 0.0 **** 0.06
18210 H 94.92300686801588 94.51197873579456 61.77684008769977 H 0.0 **** 0.06
18211 C 70.55145075177748 98.46148504698203 42.6990105443372 C 0.0 **** -0.24
18212 H 71.11812217474291 98.39122735383857 41.77076969968721 H 0.0 **** 0.06
18213 H 69.55383407793407 98.8476070938509 42.48883564360739 H 0.0 **** 0.06
18214 H 71.06500852214388 99.13376884779653 43.38723630871402 H 0.0 **** 0.06
18215 H 70.47074187123195 97.47224352710089 43.15098409289527 H 0.0 **** 0.06
18216 C 36.91097235581287 90.12990858191172 102.60194582868468 C 0.0 **** -0.24
18217 H 37.27670550751694 91.14391782955303 102.7655467801311 H 0.0 **** 0.06
18218 H 36.12998911602568 90.14418037231871 101.84183319409625 H 0.0 **** 0.06
18219 H 36.50428575728941 89.73726454427221 103.53351513151888 H 0.0 **** 0.06
18220 H 37.73349412458629 89.49661598892395 102.26866637805134 H 0.0 **** 0.06
18221 C 68.57234953024249 58.259643407314286 62.78343930445527 C 0.0 **** -0.24
18222 H 69.07797979534769 59.21900464350256 62.66976068579061 H 0.0 **** 0.06
18223 H 69.04237488476485 57.522968146098265 62.13189386584776 H 0.0 **** 0.06
18224 H 67.52221690410869 58.368658378616374 62.511389742674766 H 0.0 **** 0.06
18225 H 68.64762963886193 57.92997811994621 63.819612277572105 H 0.0 **** 0.06
18226 C 83.33370865661959 84.0414735346497 44.59952560771865 C 0.0 **** -0.24
18227 H 83.7394792220436 83.6909902032532 43.65031254728271 H 0.0 **** 0.06
18228 H 83.1081153454248 85.10489977051157 44.52792274545308 H 0.0 **** 0.06
18229 H 84.06678335436385 83.87748897885456 45.38897304442378 H 0.0 **** 0.06
18230 H 82.42182961466051 83.49059086024192 44.830251917560815 H 0.0 **** 0.06
18231 C 59.136085722815494 17.866587277529984 27.43418077533113 C 0.0 **** -0.24
18232 H 60.100915577988275 18.3383791998042 27.620453340165568 H 0.0 **** 0.06
18233 H 59.22350898088894 17.180168447775696 26.59182033580504 H 0.0 **** 0.06
18234 H 58.39539664758934 18.63329523874151 27.20313442633943 H 0.0 **** 0.06
18235 H 58.823362594895855 17.316396985116665 28.321600977388414 H 0.0 **** 0.06
18236 C 42.53767573877201 50.025647585925356 60.546381910767906 C 0.0 **** -0.24
18237 H 42.38823436260503 48.96227815468229 60.355629378641794 H 0.0 **** 0.06
18238 H 43.60549266030881 50.2426139850894 60.57666955911478 H 0.0 **** 0.06
18239 H 42.08486361839107 50.29101884637422 61.501122165287384 H 0.0 **** 0.06
18240 H 42.071715907471685 50.60540066629475 59.74942171914098 H 0.0 **** 0.06
18241 C 100.50018450564254 82.02591791844858 94.59973214625143 C 0.0 **** -0.24
18242 H 101.29104009101556 81.40092944921527 94.18579670060677 H 0.0 **** 0.06
18243 H 99.62619902040218 81.98337123748858 93.9502994328895 H 0.0 **** 0.06
18244 H 100.85063217286114 83.05591620393281 94.66992988933254 H 0.0 **** 0.06
18245 H 100.23373869332033 81.66394430637087 95.59289199201055 H 0.0 **** 0.06
18246 C 27.733618428301583 40.238269873456204 2.188370666252366 C 0.0 **** -0.24
18247 H 28.576888665196236 40.43367876020079 2.850928146657399 H 0.0 **** 0.06
18248 H 26.830560885678153 40.09432402770693 2.782408081595996 H 0.0 **** 0.06
18249 H 27.931890633813737 39.33932385274875 1.6044743324401383 H 0.0 **** 0.06
18250 H 27.595928053508203 41.08461903843886 1.5167129429347517 H 0.0 **** 0.06
18251 C 38.39434403915771 91.32728603505987 15.903106130447924 C 0.0 **** -0.24
18252 H 38.535230121502586 90.2874961284731 16.197800516869364 H 0.0 **** 0.06
18253 H 37.344572711751496 91.496237325165 15.660618157606535 H 0.0 **** 0.06
18254 H 39.00975847263374 91.54347073747311 15.029500951227561 H 0.0 **** 0.06
18255 H 38.688259532927376 91.9809219675328 16.725380151354074 H 0.0 **** 0.06
18256 C 81.01898915470088 52.722313068398364 107.08733025438208 C 0.0 **** -0.24
18257 H 80.55928897876132 52.4283744610842 106.1437643732427 H 0.0 **** 0.06
18258 H 80.86134599277857 51.93702741207546 107.82692799960391 H 0.0 **** 0.06
18259 H 80.56613134519453 53.64976533282303 107.43850094907046 H 0.0 **** 0.06
18260 H 82.08739958122969 52.87316298410662 106.93790428980364 H 0.0 **** 0.06
18261 C 110.69536128745617 70.77678847436503 83.59981369702177 C 0.0 **** -0.24
18262 H 111.50407173210779 71.36447226122922 83.1663118224671 H 0.0 **** 0.06
18263 H 111.10012546417484 70.09734128757364 84.34947107311123 H 0.0 **** 0.06
18264 H 110.20246864294938 70.20175790076136 82.81552265217508 H 0.0 **** 0.06
18265 H 109.97227029584761 71.4448254528634 84.06834947261689 H 0.0 **** 0.06
18266 C 108.97000558813481 93.32010492254082 85.84583771818582 C 0.0 **** -0.24
18267 H 108.38107220232523 94.02796916211635 86.42934901382263 H 0.0 **** 0.06
18268 H 109.72376838163409 92.86185592052946 86.48624402947023 H 0.0 **** 0.06
18269 H 109.45960394128868 93.8442797787335 85.02533306618491 H 0.0 **** 0.06
18270 H 108.31503058358565 92.5465582310184 85.44433302970114 H 0.0 **** 0.06
18271 C 73.19039478675062 91.90207488490859 78.25138513662156 C 0.0 **** -0.24
18272 H 73.56333683875853 92.91457071370905 78.09337181580672 H 0.0 **** 0.06
18273 H 73.97076869990322 91.2959967705255 78.71219164111677 H 0.0 **** 0.06
18274 H 72.90921928819847 91.4659247498285 77.29241215923724 H 0.0 **** 0.06
18275 H 72.32018173309193 91.9344003605982 78.90596436837544 H 0.0 **** 0.06
18276 C 25.217929436377744 30.530233270456172 78.42451527411103 C 0.0 **** -0.24
18277 H 25.966275330035785 30.14914750340209 77.73037714538367 H 0.0 **** 0.06
18278 H 25.10360256911295 31.604672240242074 78.28267390291114 H 0.0 **** 0.06
18279 H 25.536289329466626 30.330022422028257 79.44781696502235 H 0.0 **** 0.06
18280 H 24.26446398888669 30.03530002355383 78.23846291077405 H 0.0 **** 0.06
18281 C 45.389355960262876 13.909557142440121 54.36323355794264 C 0.0 **** -0.24
18282 H 46.30872588152637 13.362649043414422 54.571647077063865 H 0.0 **** 0.06
18283 H 45.45349864385528 14.90669147823894 54.798767211292905 H 0.0 **** 0.06
18284 H 44.54298549349579 13.376926180070996 54.79764126411737 H 0.0 **** 0.06
18285 H 45.25213529921331 13.990965236801628 53.28490338972441 H 0.0 **** 0.06
18286 C 65.46106850966942 87.70172609022421 25.741555007361654 C 0.0 **** -0.24
18287 H 66.04258969541624 87.33491892874355 24.89538990578413 H 0.0 **** 0.06
18288 H 65.98470540093916 88.53805373319003 26.205063616194877 H 0.0 **** 0.06
18289 H 65.33597672405514 86.90196053189516 26.470669379211813 H 0.0 **** 0.06
18290 H 64.48240434835486 88.03303126793259 25.393391103918248 H 0.0 **** 0.06
18291 C 18.61584632855569 73.36954489236467 57.162959372468265 C 0.0 **** -0.24
18292 H 17.563299712185035 73.54399638484301 57.38449490433597 H 0.0 **** 0.06
18293 H 18.76117494260463 72.3219718157714 56.89640159384985 H 0.0 **** 0.06
18294 H 19.21648758427161 73.60851638199244 58.04017337407948 H 0.0 **** 0.06
18295 H 18.92108831795633 74.00241618171339 56.3295093123951 H 0.0 **** 0.06
18296 C 43.96359070707791 24.541904050845147 32.36900296938311 C 0.0 **** -0.24
18297 H 44.77217614230386 24.316482279477157 33.065180684020646 H 0.0 **** 0.06
18298 H 43.54380067756955 23.61051117919908 31.98775838924618 H 0.0 **** 0.06
18299 H 44.35274846035907 25.13306234677262 31.53952187457302 H 0.0 **** 0.06
18300 H 43.18710837006404 25.106912668150756 32.88474144635812 H 0.0 **** 0.06
18301 C 57.82783473407676 61.99512798576623 20.09873698316521 C 0.0 **** -0.24
18302 H 58.38622752216821 62.607326816664454 19.39047585650882 H 0.0 **** 0.06
18303 H 57.63781098479723 62.57014700696183 21.005032648511047 H 0.0 **** 0.06
18304 H 58.40723955386602 61.10584478493762 20.346785714894445 H 0.0 **** 0.06
18305 H 56.8787684763812 61.697500111863675 19.652168230732496 H 0.0 **** 0.06
18306 C 56.86347772149594 53.491522537318836 100.4554576908962 C 0.0 **** -0.24
18307 H 57.64046935319686 53.59649349146772 99.69816855137935 H 0.0 **** 0.06
18308 H 57.216358363002996 52.83278544127784 101.24854305188285 H 0.0 **** 0.06
18309 H 55.96815015109587 53.0676781897413 100.00072453921814 H 0.0 **** 0.06
18310 H 56.63009215088255 54.47100417870278 100.87331967704273 H 0.0 **** 0.06
18311 C 8.554174564098759 19.044253014169527 93.28656799768731 C 0.0 **** -0.24
18312 H 8.63259589818216 19.471103166928344 94.28643587517922 H 0.0 **** 0.06
18313 H 8.116744816563681 18.047474924953917 93.35030521143989 H 0.0 **** 0.06
18314 H 9.54755139022356 18.976890900305932 92.84149988492916 H 0.0 **** 0.06
18315 H 7.9212894041803565 19.68021692542237 92.66823477775736 H 0.0 **** 0.06
18316 C 8.571345676276422 12.988275751722082 54.515635564989324 C 0.0 **** -0.24
18317 H 8.670440862881037 12.513117241268262 53.539321424960974 H 0.0 **** 0.06
18318 H 7.536636348239284 13.295927462208994 54.66723626088112 H 0.0 **** 0.06
18319 H 9.22129921456667 13.86215181358029 54.56137135835053 H 0.0 **** 0.06
18320 H 8.859031227250199 12.280910316578602 55.293660573756426 H 0.0 **** 0.06
18321 C 13.887571436382274 106.76205086873813 24.937654358517676 C 0.0 **** -0.24
18322 H 13.287492363644148 106.41135581241346 24.097675285518335 H 0.0 **** 0.06
18323 H 14.091121593151087 107.8262550094455 24.819364016628384 H 0.0 **** 0.06
18324 H 14.828634382043035 106.2124513022134 24.96488661067127 H 0.0 **** 0.06
18325 H 13.343595201996038 106.59629295867381 25.867563442338565 H 0.0 **** 0.06
18326 C 64.4263742668031 66.21566699158416 46.20219019122578 C 0.0 **** -0.24
18327 H 64.63714724717155 65.91967159137084 45.17532158965207 H 0.0 **** 0.06
18328 H 65.1839470160005 66.9253358114207 46.538344248834676 H 0.0 **** 0.06
18329 H 64.4419315675895 65.33551587074805 46.845196194191544 H 0.0 **** 0.06
18330 H 63.443546724325756 66.68385926273768 46.25084943046022 H 0.0 **** 0.06
18331 C 74.50105397616187 21.02676464872281 57.08029782595494 C 0.0 **** -0.24
18332 H 73.8253731673247 21.79465478131756 56.70485958480933 H 0.0 **** 0.06
18333 H 74.60755211652531 21.133491708011157 58.1602618348802 H 0.0 **** 0.06
18334 H 75.4770729677522 21.1365193251336 56.6062496900968 H 0.0 **** 0.06
18335 H 74.09470115875521 20.041375123829685 56.85067500268417 H 0.0 **** 0.06
18336 C 57.06290519960834 74.25174802041215 106.58340108625734 C 0.0 **** -0.24
18337 H 58.00209682338465 74.40481972595859 107.11569979595102 H 0.0 **** 0.06
18338 H 56.622376056106475 75.21830803786932 106.33962143253436 H 0.0 **** 0.06
18339 H 56.376594340498514 73.68821111013429 107.21579440380665 H 0.0 **** 0.06
18340 H 57.2529985898546 73.69536697493848 105.66579640751362 H 0.0 **** 0.06
18341 C 39.79816826193972 20.601823383484117 88.38644769198362 C 0.0 **** -0.24
18342 H 39.082999974531475 21.278266957402536 87.91742403571428 H 0.0 **** 0.06
18343 H 39.62603062585517 19.58707421587917 88.02819432874895 H 0.0 **** 0.06
18344 H 39.67152878629862 20.632430382366692 89.46848344471198 H 0.0 **** 0.06
18345 H 40.811207400750405 20.911438550724597 88.13097783731428 H 0.0 **** 0.06
18346 C 97.6564821579754 97.34602086797457 67.56507346115333 C 0.0 **** -0.24
18347 H 98.67648924896912 97.18692811878921 67.21384018696267 H 0.0 **** 0.06
18348 H 97.53734611883925 98.38515180493381 67.87366913171286 H 0.0 **** 0.06
18349 H 97.45889336422152 96.68994580857598 68.41248651909493 H 0.0 **** 0.06
18350 H 96.95689203418272 97.12261289181464 66.7605442874376 H 0.0 **** 0.06
18351 C 44.440958486538534 7.83391862718463 39.21914581900552 C 0.0 **** -0.24
18352 H 43.57734137746377 8.420064424802263 39.5327989847853 H 0.0 **** 0.06
18353 H 45.33964960848638 8.22888605196539 39.69309807523729 H 0.0 **** 0.06
18354 H 44.545233331826694 7.891941331492035 38.13585969040338 H 0.0 **** 0.06
18355 H 44.2997825836253 6.794391805137309 39.516055085603796 H 0.0 **** 0.06
18356 C 40.97842072830883 13.296736861460744 38.683823167436685 C 0.0 **** -0.24
18357 H 41.7231824585337 12.600918119348663 39.07222509187034 H 0.0 **** 0.06
18358 H 39.981877575562685 12.95530082630421 38.963949768581415 H 0.0 **** 0.06
18359 H 41.05554732557935 13.341343304893059 37.596879953925225 H 0.0 **** 0.06
18360 H 41.15432928616939 14.287543464200184 39.102046982375384 H 0.0 **** 0.06
18361 C 56.690818811495205 50.43059046496911 73.69908492520773 C 0.0 **** -0.24
18362 H 56.50427436588541 51.45624628297959 73.38033257915714 H 0.0 **** 0.06
18363 H 57.60606476530228 50.39410121423794 74.29057385052823 H 0.0 **** 0.06
18364 H 56.79992032751926 49.79187218051631 72.82184116753967 H 0.0 **** 0.06
18365 H 55.85353522358065 50.08034316839696 74.30195199955918 H 0.0 **** 0.06
18366 C 55.03939257745685 82.35311533998993 101.63756719532421 C 0.0 **** -0.24
18367 H 54.2415258081773 81.68097735798841 101.95537208306953 H 0.0 **** 0.06
18368 H 54.86125547477735 83.3466952111857 102.04935836116043 H 0.0 **** 0.06
18369 H 55.055706958826136 82.40808826437711 100.54877080312109 H 0.0 **** 0.06
18370 H 55.996397805920935 81.976057738022 101.99738556480989 H 0.0 **** 0.06
18371 C 82.39947510828807 35.84740615729382 7.981827568695735 C 0.0 **** -0.24
18372 H 83.12955468140112 36.47250690396618 7.467412736428116 H 0.0 **** 0.06
18373 H 82.9095386309477 35.0095454015204 8.457127776697632 H 0.0 **** 0.06
18374 H 81.67262472643118 35.47071975451203 7.2629454138947835 H 0.0 **** 0.06
18375 H 81.88653252955662 36.43860992428026 8.741162017295323 H 0.0 **** 0.06
18376 C 4.109941147512728 85.72317117065319 43.27005741850215 C 0.0 **** -0.24
18377 H 3.2723001165094985 85.08265403601726 43.545041065199634 H 0.0 **** 0.06
18378 H 4.626892695391092 86.05231790523352 44.17117296606682 H 0.0 **** 0.06
18379 H 3.7393569134329283 86.59152630879056 42.724675490753825 H 0.0 **** 0.06
18380 H 4.80115561642134 85.16515851597305 42.63794730313146 H 0.0 **** 0.06
18381 C 37.537574828199524 61.22784893244008 1.9707514175029246 C 0.0 **** -0.24
18382 H 38.31379413436582 61.62440469757243 1.3153333004469516 H 0.0 **** 0.06
18383 H 37.35163470329138 60.18352024477454 1.7207582710981058 H 0.0 **** 0.06
18384 H 36.62162149136151 61.80317845726296 1.8368329921698034 H 0.0 **** 0.06
18385 H 37.865120903250954 61.3014485124026 3.007599229357112 H 0.0 **** 0.06
18386 C 10.97288151174024 110.16477419958778 80.06022730715087 C 0.0 **** -0.24
18387 H 10.260152858141879 110.97410967011265 80.21984783681746 H 0.0 **** 0.06
18388 H 11.380065997177113 110.2327863995871 79.05168189844426 H 0.0 **** 0.06
18389 H 10.467770987154935 109.20652689072955 80.18552388984006 H 0.0 **** 0.06
18390 H 11.781251554290876 110.24597648031556 80.78644198792614 H 0.0 **** 0.06
18391 C 108.34309877459742 57.71289392664181 57.423329323472046 C 0.0 **** -0.24
18392 H 108.4209635796825 58.80026888752144 57.45013514038038 H 0.0 **** 0.06
18393 H 108.18360367166093 57.386455291652794 56.3951717907471 H 0.0 **** 0.06
18394 H 107.50530176374025 57.392871898688554 58.04136306896112 H 0.0 **** 0.06
18395 H 109.2651072221197 57.27407027821283 57.80492461828163 H 0.0 **** 0.06
18396 C 52.66153904197858 53.07771545030374 10.289781217910672 C 0.0 **** -0.24
18397 H 53.26696350097696 52.60867496371878 9.513897850512365 H 0.0 **** 0.06
18398 H 52.91754281023016 54.13554610602232 10.360032021751294 H 0.0 **** 0.06
18399 H 52.85575635511657 52.59201258229356 11.245586137978904 H 0.0 **** 0.06
18400 H 51.6063451903563 52.97502286097311 10.03798395195912 H 0.0 **** 0.06
18401 C 89.41272371667367 8.052108459349867 56.453233065377 C 0.0 **** -0.24
18402 H 89.0688695367864 7.597284259223031 55.52368154166042 H 0.0 **** 0.06
18403 H 90.45529654210247 7.784485561606999 56.624427718526306 H 0.0 **** 0.06
18404 H 88.80380424726968 7.691289165766705 57.28135152376932 H 0.0 **** 0.06
18405 H 89.32306304993335 9.136246365187816 56.381186399984614 H 0.0 **** 0.06
18406 C 10.64277391031385 41.74754544179652 18.01404379239334 C 0.0 **** -0.24
18407 H 9.777340083648483 41.44134111465466 17.427174227894767 H 0.0 **** 0.06
18408 H 11.084910042738443 42.63962749676021 17.570243176120993 H 0.0 **** 0.06
18409 H 11.37799940915977 40.94275377868195 18.023186441708894 H 0.0 **** 0.06
18410 H 10.33046289885408 41.96523639532464 19.03497335339388 H 0.0 **** 0.06
18411 C 72.33470576288806 85.86252035435729 91.50122887384848 C 0.0 **** -0.24
18412 H 72.14364359468175 86.6161873261517 92.26473594197176 H 0.0 **** 0.06
18413 H 72.16397335864679 86.29395466574391 90.51440737878295 H 0.0 **** 0.06
18414 H 71.66413880160445 85.01704047782496 91.64941921716718 H 0.0 **** 0.06
18415 H 73.36855464048364 85.52455610118716 91.57655765716206 H 0.0 **** 0.06
18416 C 16.352403948550574 82.13751994174967 9.319119366059539 C 0.0 **** -0.24
18417 H 16.971744141071156 82.27829405789612 10.204502371162405 H 0.0 **** 0.06
18418 H 15.306992822195895 82.05813618544005 9.616219509686943 H 0.0 **** 0.06
18419 H 16.655744317407766 81.22465508268053 8.805951625010493 H 0.0 **** 0.06
18420 H 16.47748745717655 82.9884336264688 8.64941737729896 H 0.0 **** 0.06
18421 C 102.95026281206158 34.06821088780932 4.6015878054382995 C 0.0 **** -0.24
18422 H 103.89594077110178 33.93000004380762 5.124795837265083 H 0.0 **** 0.06
18423 H 103.12526686460218 34.60836912327383 3.671151674179953 H 0.0 **** 0.06
18424 H 102.26712912567065 34.63969614116796 5.231065981586596 H 0.0 **** 0.06
18425 H 102.51151354968658 33.09548443101244 4.379580934203915 H 0.0 **** 0.06
18426 C 74.49437700467473 72.35922824978775 28.642348012276557 C 0.0 **** -0.24
18427 H 74.27086030728182 71.6004470700625 27.892958194889914 H 0.0 **** 0.06
18428 H 73.6009331969123 72.95354833408703 28.836501519603132 H 0.0 **** 0.06
18429 H 75.28971595699534 73.00885098751007 28.27487548660983 H 0.0 **** 0.06
18430 H 74.8169264835669 71.87574704522137 29.563909968037933 H 0.0 **** 0.06
18431 C 3.1693226608012424 31.691056169754432 6.804373966838455 C 0.0 **** -0.24
18432 H 3.717255740178757 31.25612313709118 7.641937379689523 H 0.0 **** 0.06
18433 H 3.508156928312644 31.23553524313519 5.873674887231971 H 0.0 **** 0.06
18434 H 3.3506046572977084 32.765459695098144 6.771228161261831 H 0.0 **** 0.06
18435 H 2.1032874948668905 31.505935526717792 6.933219083303413 H 0.0 **** 0.06
18436 C 70.64900847696902 23.522296619985948 12.616372636790615 C 0.0 **** -0.24
18437 H 70.36454381100737 22.586288840489054 13.097897363316378 H 0.0 **** 0.06
18438 H 70.51481819799665 23.430297528919954 11.537977100042042 H 0.0 **** 0.06
18439 H 71.69325855004905 23.74087443622896 12.836068277095293 H 0.0 **** 0.06
18440 H 70.02092554301794 24.33009811293218 12.993144918697823 H 0.0 **** 0.06
18441 C 109.18334991709257 55.75729398396268 94.46104625945833 C 0.0 **** -0.24
18442 H 108.26610042874131 56.34476745459502 94.41430166543628 H 0.0 **** 0.06
18443 H 109.20591330758273 55.05492342037505 93.62639343578348 H 0.0 **** 0.06
18444 H 109.21559254160456 55.20738722456142 95.40078644844249 H 0.0 **** 0.06
18445 H 110.04410923040679 56.42273270172824 94.39942305302073 H 0.0 **** 0.06
18446 C 87.0881447621681 94.98295808766653 106.46867695890727 C 0.0 **** -0.24
18447 H 86.80604992817413 96.01397230640595 106.25818027117356 H 0.0 **** 0.06
18448 H 86.72367962403743 94.70053888056574 107.45652831593884 H 0.0 **** 0.06
18449 H 88.17413569851237 94.8901559590892 106.44132344392933 H 0.0 **** 0.06
18450 H 86.64851169540623 94.32577952699135 105.71765639154795 H 0.0 **** 0.06
18451 C 79.06782865684782 71.58470033939093 34.57962476554718 C 0.0 **** -0.24
18452 H 78.78318831760686 72.04017617955276 33.63132399548351 H 0.0 **** 0.06
18453 H 79.50428989858615 70.6027766328769 34.393879766454035 H 0.0 **** 0.06
18454 H 78.18495498193771 71.47693551094278 35.20983628153601 H 0.0 **** 0.06
18455 H 79.79771575635985 72.21891710072114 35.08265821242978 H 0.0 **** 0.06
18456 C 98.78495553044363 49.227145176280374 22.700490342950644 C 0.0 **** -0.24
18457 H 98.29020345740021 50.12534573666264 23.068344674037007 H 0.0 **** 0.06
18458 H 98.95286164555297 48.53951372801055 23.52998435093309 H 0.0 **** 0.06
18459 H 99.74148941960173 49.49707206085452 22.25308435060164 H 0.0 **** 0.06
18460 H 98.15647577269492 48.74630216950425 21.951196071384715 H 0.0 **** 0.06
18461 C 83.51056763493936 67.33651340354723 74.09852089882162 C 0.0 **** -0.24
18462 H 84.0842210635862 67.41064807149507 73.17531156956919 H 0.0 **** 0.06
18463 H 84.07067584209277 66.75018522403934 74.82801378595103 H 0.0 **** 0.06
18464 H 82.55740368296014 66.84821554903024 73.89502782537734 H 0.0 **** 0.06
18465 H 83.32983811157324 68.33565865786889 74.49531725336429 H 0.0 **** 0.06
18466 C 29.528812906374554 44.38709676442892 62.0393809339086 C 0.0 **** -0.24
18467 H 29.151650032791906 45.40703053866815 62.12153355543802 H 0.0 **** 0.06
18468 H 30.042083995144083 44.26550815969779 61.08508654906126 H 0.0 **** 0.06
18469 H 28.694358122562278 43.68690595356556 62.09569129625382 H 0.0 **** 0.06
18470 H 30.223568515979537 44.18999203364905 62.85527556891125 H 0.0 **** 0.06
18471 C 108.04396778038814 84.45450333631527 76.63050157743842 C 0.0 **** -0.24
18472 H 108.53143184032609 84.560516464633 77.60024680024725 H 0.0 **** 0.06
18473 H 108.60641634606705 83.74934969781117 76.01773674690932 H 0.0 **** 0.06
18474 H 108.01119434913285 85.42349490294995 76.13340004976138 H 0.0 **** 0.06
18475 H 107.02919936511279 84.08426531186132 76.77267944934351 H 0.0 **** 0.06
18476 C 0.7139309794512769 50.50726834249639 80.75284903279373 C 0.0 **** -0.24
18477 H 0.9087318360292329 51.182268689364605 81.58638421646538 H 0.0 **** 0.06
18478 H 1.4974668063995296 49.75139588360912 80.7054134304708 H 0.0 **** 0.06
18479 H 0.6988525678043516 51.07491059099408 79.82277397133566 H 0.0 **** 0.06
18480 H -0.2513051757790663 50.02176181467917 80.89752563505056 H 0.0 **** 0.06
18481 C 81.08387262918984 89.75872595483042 79.22094490008905 C 0.0 **** -0.24
18482 H 80.09051985393228 89.83701095461527 79.6625323129301 H 0.0 **** 0.06
18483 H 81.70796632361458 89.11533152362591 79.84077098431703 H 0.0 **** 0.06
18484 H 81.53293569662787 90.75014951642103 79.15802084545231 H 0.0 **** 0.06
18485 H 81.00355537680974 89.33168593874797 78.22040365374923 H 0.0 **** 0.06
18486 C 70.14471183310059 28.551741986973752 88.21343366041009 C 0.0 **** -0.24
18487 H 69.19404680551973 29.029429081294325 87.97536475579591 H 0.0 **** 0.06
18488 H 70.18115506119213 28.327083086029234 89.27937268177851 H 0.0 **** 0.06
18489 H 70.96344338306777 29.222340738398415 87.95417191596732 H 0.0 **** 0.06
18490 H 70.23793004389961 27.62720523192634 87.64282264281547 H 0.0 **** 0.06
18491 C 26.821447636228044 84.887942262099 90.50824984888692 C 0.0 **** -0.24
18492 H 26.54100189832465 85.64040098802381 91.24570616283279 H 0.0 **** 0.06
18493 H 26.096160415412726 84.88840876856257 89.69406374999957 H 0.0 **** 0.06
18494 H 26.839086298974024 83.9055904149711 90.97937872392043 H 0.0 **** 0.06
18495 H 27.81045855795918 85.11909946210122 90.11237930593018 H 0.0 **** 0.06
18496 C 83.25143836539596 102.91282058220001 97.21274208189463 C 0.0 **** -0.24
18497 H 83.6212607569976 103.88397400183999 97.54137281095333 H 0.0 **** 0.06
18498 H 82.18906006422606 102.83155065458598 97.44304901940801 H 0.0 **** 0.06
18499 H 83.79748575503768 102.12298575855975 97.72839789890952 H 0.0 **** 0.06
18500 H 83.39845688304608 102.8144767547876 96.13646523226257 H 0.0 **** 0.06
18501 C 83.45589435462131 34.22874653405324 92.9681069391934 C 0.0 **** -0.24
18502 H 83.22721977926301 34.939480664621385 93.76100956047033 H 0.0 **** 0.06
18503 H 82.5524454742507 34.0254192433504 92.39203495456567 H 0.0 **** 0.06
18504 H 83.82410562781814 33.300949557027565 93.40665339058275 H 0.0 **** 0.06
18505 H 84.21865945406626 34.64807970257078 92.31197674524564 H 0.0 **** 0.06
18506 C 64.76258864329543 33.070288711709026 36.02150100358526 C 0.0 **** -0.24
18507 H 65.63017477573567 33.32260530777614 35.41105246693735 H 0.0 **** 0.06
18508 H 63.883012885732455 33.58499543030271 35.63290186964511 H 0.0 **** 0.06
18509 H 64.94057685457221 33.38255222169764 37.050903484022854 H 0.0 **** 0.06
18510 H 64.59754695806197 31.993654082710094 35.99137114057564 H 0.0 **** 0.06
18511 C 40.8463722427568 1.7365805259886145 45.463233059822414 C 0.0 **** -0.24
18512 H 40.174971471898125 0.9615002182875969 45.096685461502716 H 0.0 **** 0.06
18513 H 41.85927093853305 1.3384089352911985 45.530667442479796 H 0.0 **** 0.06
18514 H 40.51910964735553 2.0647118810077245 46.44950366621407 H 0.0 **** 0.06
18515 H 40.8342706580975 2.5823525319726457 44.77622726311665 H 0.0 **** 0.06
18516 C 106.33288712599231 54.83398778697875 41.15010194882326 C 0.0 **** -0.24
18517 H 105.61817072613928 54.63266819573022 41.9472076837007 H 0.0 **** 0.06
18518 H 105.7959173433005 55.05231217476151 40.226548112408295 H 0.0 **** 0.06
18519 H 106.96754692201657 53.9597371624989 41.00346789362871 H 0.0 **** 0.06
18520 H 106.95089174229342 55.68925600245211 41.4228202830802 H 0.0 **** 0.06
18521 C 42.823559787779686 1.714265921562622 59.915850169723115 C 0.0 **** -0.24
18522 H 41.81248930239919 1.3730351960150395 59.69221692521579 H 0.0 **** 0.06
18523 H 43.51180998665479 1.328599759483085 59.164327740102564 H 0.0 **** 0.06
18524 H 43.11851225182412 1.3522934193694898 60.90057077118408 H 0.0 **** 0.06
18525 H 42.847942093580606 2.8040560554525857 59.90622154327271 H 0.0 **** 0.06
18526 C 51.85789947353197 71.4811596723523 52.79842328671077 C 0.0 **** -0.24
18527 H 52.423041967245865 71.28621982532962 53.70900995027279 H 0.0 **** 0.06
18528 H 52.10379127691766 70.72819429189664 52.05059909871068 H 0.0 **** 0.06
18529 H 52.11261825672295 72.47014624805058 52.41740802627379 H 0.0 **** 0.06
18530 H 50.7906387680502 71.44076710710897 53.018479664100084 H 0.0 **** 0.06
18531 C 40.786292000048604 7.234362489054803 30.352035791989977 C 0.0 **** -0.24
18532 H 40.88864685542646 6.172198837526949 30.575001275363746 H 0.0 **** 0.06
18533 H 40.60583685483192 7.783322229862449 31.276042748442705 H 0.0 **** 0.06
18534 H 39.94979090380062 7.383855913827276 29.670071484853338 H 0.0 **** 0.06
18535 H 41.703180835693445 7.597207667285275 29.887165929829962 H 0.0 **** 0.06
18536 C 74.5310578655278 9.23050704246039 77.28060701816321 C 0.0 **** -0.24
18537 H 74.871814448713 9.543850953308157 78.26822757097514 H 0.0 **** 0.06
18538 H 73.8525077735135 8.38314899438863 77.38297832355823 H 0.0 **** 0.06
18539 H 75.39107947560133 8.937597256391857 76.67719878883281 H 0.0 **** 0.06
18540 H 74.01190845650954 10.05728749543362 76.79676235353622 H 0.0 **** 0.06
18541 C 24.097326310921915 33.353690587460136 26.569390526603343 C 0.0 **** -0.24
18542 H 23.274015277296826 32.63976204740891 26.560407825307323 H 0.0 **** 0.06
18543 H 24.95731867470218 32.92371878834746 26.054831322169548 H 0.0 **** 0.06
18544 H 24.36871498036342 33.58236194556065 27.601108243114027 H 0.0 **** 0.06
18545 H 23.789827945386833 34.26844393509322 26.06332356828898 H 0.0 **** 0.06
18546 C 67.69050494203549 4.463852175572697 99.83096088719196 C 0.0 **** -0.24
18547 H 67.60060177548081 5.548887325952252 99.89168092958698 H 0.0 **** 0.06
18548 H 68.22966242586227 4.195901200920719 98.92154718267909 H 0.0 **** 0.06
18549 H 66.6968311086656 4.017474535307873 99.80907487520875 H 0.0 **** 0.06
18550 H 68.23597227372517 4.095688514766158 100.69997967252596 H 0.0 **** 0.06
18551 C 13.190843663837654 100.3804159668249 56.3531372630456 C 0.0 **** -0.24
18552 H 13.552169749064063 99.89076893863056 55.449748700357866 H 0.0 **** 0.06
18553 H 13.169875071253784 101.45949916886973 56.19835506466859 H 0.0 **** 0.06
18554 H 13.856667494034369 100.14692612190059 57.18424367926865 H 0.0 **** 0.06
18555 H 12.186263176387598 100.02555881013986 56.582493219194646 H 0.0 **** 0.06
18556 C 10.579984084751743 95.72736493851419 110.28336136774556 C 0.0 **** -0.24
18557 H 10.469100681521411 94.93609504171543 109.54149710358621 H 0.0 **** 0.06
18558 H 10.401647441979435 96.69331104166434 109.81173242612698 H 0.0 **** 0.06
18559 H 11.589349274737117 95.70207010400132 110.6932720718209 H 0.0 **** 0.06
18560 H 9.857676795011457 95.57516622289721 111.08576556403631 H 0.0 **** 0.06
18561 C 82.78427844699792 49.13200680276731 15.228615082592537 C 0.0 **** -0.24
18562 H 83.06006004217102 48.73276337000067 14.251553147295873 H 0.0 **** 0.06
18563 H 82.67884402193783 48.311975989525536 15.939185133991522 H 0.0 **** 0.06
18564 H 81.83900527238887 49.66838913362227 15.147761286652727 H 0.0 **** 0.06
18565 H 83.5617004071936 49.81484447121244 15.573173655269688 H 0.0 **** 0.06
18566 C 22.620511490550285 62.507727475223874 47.61787088493955 C 0.0 **** -0.24
18567 H 22.569124699793974 62.723935910160094 46.55085493731298 H 0.0 **** 0.06
18568 H 23.492078197322655 61.88550623320009 47.81999191350204 H 0.0 **** 0.06
18569 H 21.71755442904123 61.97948830767291 47.92523011399359 H 0.0 **** 0.06
18570 H 22.701707171913597 63.44140391301738 48.17499684408807 H 0.0 **** 0.06
18571 C 44.22314670362314 104.68609147370816 5.89233309691501 C 0.0 **** -0.24
18572 H 43.91407831413976 103.71790323740433 6.284312591176459 H 0.0 **** 0.06
18573 H 44.51989356032588 104.5764335638712 4.848185938005486 H 0.0 **** 0.06
18574 H 45.066673858499534 105.06120244595786 6.472735095583943 H 0.0 **** 0.06
18575 H 43.39270572196111 105.38830478802845 5.961830880785357 H 0.0 **** 0.06
18576 C 104.06554823596599 86.3509784985322 15.928706985696437 C 0.0 **** -0.24
18577 H 104.14690211717118 87.01982345992845 15.072129683283407 H 0.0 **** 0.06
18578 H 104.97384284555784 86.41713287106427 16.5286180554385 H 0.0 **** 0.06
18579 H 103.93353639079447 85.32757319223174 15.579114182339481 H 0.0 **** 0.06
18580 H 103.20765819676149 86.64121922181792 16.535720794464282 H 0.0 **** 0.06
18581 C 13.28616605158631 75.79834435744576 19.126745997162743 C 0.0 **** -0.24
18582 H 12.53829538472868 75.30582589508303 18.505311559897336 H 0.0 **** 0.06
18583 H 13.1207116075269 75.53566558501149 20.171660073620842 H 0.0 **** 0.06
18584 H 13.203412819638324 76.87903933506148 19.005985649391675 H 0.0 **** 0.06
18585 H 14.281591067382937 75.47432472972208 18.82248119906251 H 0.0 **** 0.06
18586 C 13.052125806068915 37.211064327175805 63.43863848126196 C 0.0 **** -0.24
18587 H 13.283318347622469 36.1738929216383 63.196662868531234 H 0.0 **** 0.06
18588 H 13.618724743020493 37.514544973991775 64.31907410267559 H 0.0 **** 0.06
18589 H 11.985154830970032 37.30753100542336 63.64210813960375 H 0.0 **** 0.06
18590 H 13.319965678580303 37.848707141000205 62.59688251010567 H 0.0 **** 0.06
18591 C 13.378562713087433 21.728841224537916 16.883512923164446 C 0.0 **** -0.24
18592 H 13.969294918095613 20.934179709426445 17.340173973407573 H 0.0 **** 0.06
18593 H 12.318528638195517 21.52567098516124 17.033056582430646 H 0.0 **** 0.06
18594 H 13.594315526517107 21.77265818003886 15.815735532695427 H 0.0 **** 0.06
18595 H 13.63501709474815 22.682871981803032 17.345833456564847 H 0.0 **** 0.06
18596 C 74.01790655845761 89.86242341844526 28.217550325351453 C 0.0 **** -0.24
18597 H 74.692694725828 89.1937891095754 28.7516915076406 H 0.0 **** 0.06
18598 H 74.10223975896815 89.68338261787427 27.146081245013193 H 0.0 **** 0.06
18599 H 74.28341301153415 90.89657606611995 28.436448350390805 H 0.0 **** 0.06
18600 H 72.99346571390834 89.67550970339182 28.538942501874118 H 0.0 **** 0.06
18601 C 25.025982416562584 96.47441745784643 7.216842022277945 C 0.0 **** -0.24
18602 H 25.56198440104569 96.51427505014165 6.268676969792068 H 0.0 **** 0.06
18603 H 25.389313713902993 97.26611175374711 7.872184871556101 H 0.0 **** 0.06
18604 H 25.193249943110118 95.5066736056779 7.687987500445445 H 0.0 **** 0.06
18605 H 23.959732452798022 96.61249014781906 7.036207853492556 H 0.0 **** 0.06
18606 C 27.153146234223726 50.185362343122904 89.40712237471251 C 0.0 **** -0.24
18607 H 26.309759962618443 50.4137187396733 90.0583048789278 H 0.0 **** 0.06
18608 H 28.059970437000402 50.632788337322154 89.81768872342553 H 0.0 **** 0.06
18609 H 26.965198789812717 50.59146700060674 88.41361321167824 H 0.0 **** 0.06
18610 H 27.27902140595799 49.10529006563854 89.34084279616803 H 0.0 **** 0.06
18611 C 43.25865849579924 38.96933974907466 63.95230658731478 C 0.0 **** -0.24
18612 H 43.747749198340955 39.36618369038456 64.84237509234814 H 0.0 **** 0.06
18613 H 43.98375383443886 38.901358359267874 63.140803627681265 H 0.0 **** 0.06
18614 H 42.44469079449891 39.63142154265023 63.65925719756821 H 0.0 **** 0.06
18615 H 42.860441944503464 37.977533625304716 64.16885213785847 H 0.0 **** 0.06
18616 C 35.463068352550295 39.31951396785735 55.422091266434606 C 0.0 **** -0.24
18617 H 34.67951771371334 40.07177550867962 55.33035408466945 H 0.0 **** 0.06
18618 H 35.23194563699937 38.656005530486084 56.25588957226445 H 0.0 **** 0.06
18619 H 36.41918311032998 39.81034095267398 55.60092672078958 H 0.0 **** 0.06
18620 H 35.51878452104344 38.739717397905196 54.50025970641621 H 0.0 **** 0.06
18621 C 3.0253593211722034 50.065570484846546 78.2766949212043 C 0.0 **** -0.24
18622 H 3.038869963185604 50.342373169349685 79.33139465243238 H 0.0 **** 0.06
18623 H 3.9199233342801705 49.488974441292044 78.04106604534218 H 0.0 **** 0.06
18624 H 3.0010549758841023 50.966707201837266 77.66464050781451 H 0.0 **** 0.06
18625 H 2.140111354972433 49.46221187688093 78.07133852485734 H 0.0 **** 0.06
18626 C 35.177071138045335 90.23121017993537 75.93442497447523 C 0.0 **** -0.24
18627 H 35.93590384335877 89.47117237640538 76.12095433716401 H 0.0 **** 0.06
18628 H 34.29722452072815 89.76444504048106 75.49316666430639 H 0.0 **** 0.06
18629 H 35.57462750319411 90.98022840889928 75.24871262936905 H 0.0 **** 0.06
18630 H 34.903509357992505 90.70865426201959 76.87486305751135 H 0.0 **** 0.06
18631 C 102.73117074585325 108.39778243775598 74.95948841602518 C 0.0 **** -0.24
18632 H 103.07519525211197 108.83035076002898 74.01941790129808 H 0.0 **** 0.06
18633 H 103.279250022831 107.47572655836444 75.15654642508639 H 0.0 **** 0.06
18634 H 101.66605121241479 108.1810800250496 74.89137766908522 H 0.0 **** 0.06
18635 H 102.90726775450024 109.10540820993171 75.76940959891073 H 0.0 **** 0.06
18636 C 31.59101935547534 34.177161789531965 78.27138753581694 C 0.0 **** -0.24
18637 H 32.527477796497124 33.79812064464821 78.68030087277812 H 0.0 **** 0.06
18638 H 31.068695178268285 33.37271252344341 77.75321808284998 H 0.0 **** 0.06
18639 H 31.802234803441706 34.98539188191903 77.57042752347881 H 0.0 **** 0.06
18640 H 30.967016593907886 34.55418934099541 79.08185439202784 H 0.0 **** 0.06
18641 C 61.33621442679669 26.286636166165465 70.30906942555286 C 0.0 **** -0.24
18642 H 60.866717295627325 26.2119853301445 69.32847297364093 H 0.0 **** 0.06
18643 H 61.648595522290535 25.294814494015014 70.6381478784136 H 0.0 **** 0.06
18644 H 60.623765325538486 26.698722488388313 71.02355515822283 H 0.0 **** 0.06
18645 H 62.207167268357495 26.939006973333107 70.24598844043078 H 0.0 **** 0.06
18646 C 72.50573053696155 36.96944688134456 77.62318442235036 C 0.0 **** -0.24
18647 H 73.27484134341256 36.584001539370206 78.29324355154478 H 0.0 **** 0.06
18648 H 72.65373700832738 38.03993865027213 77.4791073085176 H 0.0 **** 0.06
18649 H 71.52258349563064 36.79364863690815 78.05954962933208 H 0.0 **** 0.06
18650 H 72.5732464085909 36.46032397351904 76.66250334535124 H 0.0 **** 0.06
18651 C 0.9412360565701192 40.370687785049455 82.83950651446855 C 0.0 **** -0.24
18652 H -0.1427676108293383 40.285461795387306 82.76429810029998 H 0.0 **** 0.06
18653 H 1.1963718514726054 41.06484628813095 83.64095176461075 H 0.0 **** 0.06
18654 H 1.3430772094311578 40.740016346534674 81.8964769353048 H 0.0 **** 0.06
18655 H 1.3681598465146578 39.39136626895262 83.05722929556754 H 0.0 **** 0.06
18656 C 26.590475373237872 101.58970973477562 109.16884077175791 C 0.0 **** -0.24
18657 H 27.166597432207254 101.46577911392816 110.08556280359574 H 0.0 **** 0.06
18658 H 26.82214675380444 100.77642353161843 108.48110560897993 H 0.0 **** 0.06
18659 H 26.846122556192825 102.5424102583332 108.70522028713702 H 0.0 **** 0.06
18660 H 25.52567002801746 101.57454672549179 109.40521649552818 H 0.0 **** 0.06
18661 C 3.101049048282647 78.30062459646163 48.479688229472885 C 0.0 **** -0.24
18662 H 3.01361909455008 78.84412496039329 47.538244045100804 H 0.0 **** 0.06
18663 H 3.187394298441518 79.01193629850505 49.302328488258595 H 0.0 **** 0.06
18664 H 3.9864249623178694 77.6667924375999 48.45237650296059 H 0.0 **** 0.06
18665 H 2.2152387870243615 77.68209736590904 48.624508750249596 H 0.0 **** 0.06
18666 C 5.009810727080804 43.48801569326532 28.619379150640214 C 0.0 **** -0.24
18667 H 4.8396386106992395 44.509358940424086 28.27716692154675 H 0.0 **** 0.06
18668 H 5.911712776849072 43.456014466373915 29.23098226243644 H 0.0 **** 0.06
18669 H 5.132050864824123 42.83305685843552 27.75660222987696 H 0.0 **** 0.06
18670 H 4.1563228627035755 43.1564944915716 29.210403572817157 H 0.0 **** 0.06
18671 C 51.844557105204274 14.864172687131258 74.00333499513951 C 0.0 **** -0.24
18672 H 51.24404646154056 14.013958344668083 74.32727524610945 H 0.0 **** 0.06
18673 H 52.67179423667369 14.510033841671316 73.38764093633455 H 0.0 **** 0.06
18674 H 52.23757915859119 15.384144044629863 74.8772744724878 H 0.0 **** 0.06
18675 H 51.22477222088173 15.546701545195049 73.42275103542262 H 0.0 **** 0.06
18676 C 59.918477600502854 9.483338507202348 83.74595751623205 C 0.0 **** -0.24
18677 H 60.95208740972686 9.623540642606088 83.42957980652622 H 0.0 **** 0.06
18678 H 59.741206314748865 10.03987699021593 84.66604909926254 H 0.0 **** 0.06
18679 H 59.73389550131725 8.42310542738403 83.92066019573683 H 0.0 **** 0.06
18680 H 59.248366263798744 9.844950404138501 82.96588035609074 H 0.0 **** 0.06
18681 C 59.58082960820346 16.77722597197254 0.7026440408754127 C 0.0 **** -0.24
18682 H 60.54707396249003 16.4599389292338 0.3094945140083496 H 0.0 **** 0.06
18683 H 59.632318412490065 16.834712959639887 1.7899728264619341 H 0.0 **** 0.06
18684 H 58.81705408946834 16.056631152268807 0.4114761190603815 H 0.0 **** 0.06
18685 H 59.329094662576836 17.757612176561366 0.29788343055393796 H 0.0 **** 0.06
18686 C 49.24002901917865 30.22331737104963 82.35063439130522 C 0.0 **** -0.24
18687 H 49.223987657229145 30.204907023138702 83.44021846325836 H 0.0 **** 0.06
18688 H 49.17690156178139 31.255691595599046 82.00454164397041 H 0.0 **** 0.06
18689 H 48.39185307666324 29.658267328313684 81.96464251319469 H 0.0 **** 0.06
18690 H 50.168131061377466 29.776727425623648 81.99329733477879 H 0.0 **** 0.06
18691 C 64.22684447272707 11.365739077145339 3.220203367715726 C 0.0 **** -0.24
18692 H 63.90099701668663 12.218850265054233 3.815127277596602 H 0.0 **** 0.06
18693 H 64.57518006800478 10.573214105824288 3.882722218664682 H 0.0 **** 0.06
18694 H 65.03914821649852 11.671946347403622 2.5614306898548023 H 0.0 **** 0.06
18695 H 63.3919048127035 11.000298545167851 2.6219177007096306 H 0.0 **** 0.06
18696 C 7.460546206008473 59.856760355253755 41.436556200874406 C 0.0 **** -0.24
18697 H 7.551343462499062 60.3829272409821 42.38683826417463 H 0.0 **** 0.06
18698 H 7.67148073905804 60.546820290357346 40.6188149798387 H 0.0 **** 0.06
18699 H 6.448290278855268 59.46737529885917 41.331618567153384 H 0.0 **** 0.06
18700 H 8.172533983335 59.03153878407278 41.40943567648094 H 0.0 **** 0.06
18701 C 85.10689049860036 21.942099131390506 32.616849787435086 C 0.0 **** -0.24
18702 H 84.40564531419835 22.033072802779543 31.78735131633482 H 0.0 **** 0.06
18703 H 85.62092276269516 20.982255612506236 32.55347743525766 H 0.0 **** 0.06
18704 H 84.56397472486833 22.001990759837412 33.55980214951563 H 0.0 **** 0.06
18705 H 85.83750507029617 22.749239047251763 32.56522394750823 H 0.0 **** 0.06
18706 C 78.15265235696307 1.7145354674804878 60.651345024429475 C 0.0 **** -0.24
18707 H 77.68706250910503 1.826190666919814 59.672297055550814 H 0.0 **** 0.06
18708 H 79.04477822544618 1.0948761108699188 60.56088262516937 H 0.0 **** 0.06
18709 H 77.44831708938375 1.2412997059483502 61.3354769381275 H 0.0 **** 0.06
18710 H 78.4291858041662 2.6966945435349032 61.035477243794276 H 0.0 **** 0.06
18711 C 44.40157710763481 55.6794399723324 3.980514881430196 C 0.0 **** -0.24
18712 H 45.32498342921531 56.22505216013923 3.7816658719285954 H 0.0 **** 0.06
18713 H 43.994030301078 55.30172432836912 3.0421262164257143 H 0.0 **** 0.06
18714 H 43.67930088390273 56.3470693622337 4.448836050595133 H 0.0 **** 0.06
18715 H 44.611249630582506 54.84390748148934 4.6482480719472505 H 0.0 **** 0.06
18716 C 27.38885995934595 58.27540250090658 64.90014674982397 C 0.0 **** -0.24
18717 H 27.983188112316384 59.17514521559821 65.0640580139729 H 0.0 **** 0.06
18718 H 27.187017875808635 57.794360628130704 65.85811298572537 H 0.0 **** 0.06
18719 H 27.93863685623333 57.589418251745315 64.25630774208236 H 0.0 **** 0.06
18720 H 26.446539911600496 58.54631408328285 64.42302137898547 H 0.0 **** 0.06
18721 C 32.16101880861618 94.05997935586802 52.445930358771705 C 0.0 **** -0.24
18722 H 31.287827057853633 94.39020331929213 51.883915238447344 H 0.0 **** 0.06
18723 H 32.045417836039576 94.34026332223175 53.49362311886148 H 0.0 **** 0.06
18724 H 33.054620858670376 94.53319347785525 52.03929109842488 H 0.0 **** 0.06
18725 H 32.25451880651349 92.97722168442267 52.36799281480796 H 0.0 **** 0.06
18726 C 65.84462463732451 57.12053843568947 26.87394262533269 C 0.0 **** -0.24
18727 H 65.80910622508958 56.2911873071149 26.167454914824418 H 0.0 **** 0.06
18728 H 64.93627605199612 57.71632253662315 26.78051394295312 H 0.0 **** 0.06
18729 H 66.71158383835127 57.74407678781472 26.659104728059475 H 0.0 **** 0.06
18730 H 65.91948939419107 56.72976999389217 27.88913377277541 H 0.0 **** 0.06
18731 C 27.014072060706127 60.06516138866546 41.85418742799422 C 0.0 **** -0.24
18732 H 25.961200602710065 60.01726832796557 41.57544435465067 H 0.0 **** 0.06
18733 H 27.316353330674005 61.10758254434724 41.952008048337234 H 0.0 **** 0.06
18734 H 27.61591199791944 59.58240341774912 41.084229530940064 H 0.0 **** 0.06
18735 H 27.161870041468852 59.553117480462205 42.80520296041149 H 0.0 **** 0.06
18736 C 53.12853602635363 68.41719817439252 54.14152884612979 C 0.0 **** -0.24
18737 H 53.125204734370094 69.00134650734876 55.0615985948991 H 0.0 **** 0.06
18738 H 53.319394253373716 67.37054981663607 54.376511897871346 H 0.0 **** 0.06
18739 H 53.908186676382904 68.78916138765474 53.47758313295935 H 0.0 **** 0.06
18740 H 52.15937365681226 68.50907062486392 53.65094806752903 H 0.0 **** 0.06
18741 C 92.64157920132936 84.13389670843839 85.40059515683149 C 0.0 **** -0.24
18742 H 93.71232881454915 84.31677139062162 85.30787045422484 H 0.0 **** 0.06
18743 H 92.09389264708409 84.88947654257268 84.8369930766761 H 0.0 **** 0.06
18744 H 92.35473012279243 84.18373930576308 86.4507499205386 H 0.0 **** 0.06
18745 H 92.40663570063745 83.1452873534698 85.00623006591107 H 0.0 **** 0.06
18746 C 56.61284239124785 31.331863666780237 109.67963868259898 C 0.0 **** -0.24
18747 H 57.1093766916494 31.665995285668544 108.76892772102273 H 0.0 **** 0.06
18748 H 55.55250828575973 31.57815188306725 109.62625875545076 H 0.0 **** 0.06
18749 H 57.05985075927856 31.8301891773188 110.54043888443726 H 0.0 **** 0.06
18750 H 56.730284128617996 30.252847875235773 109.78363931232185 H 0.0 **** 0.06
18751 C 96.6852644841278 42.16236107151278 3.409562390825247 C 0.0 **** -0.24
18752 H 97.2311418777064 42.653901337285376 4.214154034289471 H 0.0 **** 0.06
18753 H 96.77764613632874 41.081431934640875 3.5155792157399155 H 0.0 **** 0.06
18754 H 97.098272365606 42.47101493232428 2.449645220095883 H 0.0 **** 0.06
18755 H 95.6330653440531 42.443371657001705 3.460304686006472 H 0.0 **** 0.06
18756 C 22.181985146181162 39.04216434264171 2.6085351354163606 C 0.0 **** -0.24
18757 H 22.451250008894263 38.565458838684236 1.6656172888589253 H 0.0 **** 0.06
18758 H 21.440030093787083 38.43192074093781 3.124891843318153 H 0.0 **** 0.06
18759 H 21.765036555583965 40.030069964225135 2.409180777578001 H 0.0 **** 0.06
18760 H 23.06927760104765 39.14059977318357 3.2326827290691966 H 0.0 **** 0.06
18761 C 63.29565807199144 62.419515805895855 4.498310465972764 C 0.0 **** -0.24
18762 H 63.42105364848807 62.994543289755114 5.415092889481826 H 0.0 **** 0.06
18763 H 62.764046046018464 61.49343094395334 4.72020297012682 H 0.0 **** 0.06
18764 H 64.27420419629993 62.18536730863241 4.078736024885103 H 0.0 **** 0.06
18765 H 62.72224251431872 63.00416784777815 3.778492882817318 H 0.0 **** 0.06
18766 C 91.95970625934375 43.4063797457205 102.2472677736181 C 0.0 **** -0.24
18767 H 92.18119985168794 42.445511761935165 102.71306504493022 H 0.0 **** 0.06
18768 H 92.78877181161634 44.093201886159164 102.42136675031945 H 0.0 **** 0.06
18769 H 91.04829537247393 43.81798868871803 102.6798564477541 H 0.0 **** 0.06
18770 H 91.82276423051917 43.265966892398666 101.17489290401495 H 0.0 **** 0.06
18771 C 32.24092583542935 8.854178002150134 83.11767130410952 C 0.0 **** -0.24
18772 H 32.47125537044778 8.514587727112133 84.12678250244035 H 0.0 **** 0.06
18773 H 32.235368255224614 7.999800715234189 82.43931490805461 H 0.0 **** 0.06
18774 H 32.99647054734291 9.570281027096716 82.79395322467782 H 0.0 **** 0.06
18775 H 31.2612728628537 9.330965347546048 83.10945165306056 H 0.0 **** 0.06
18776 C 18.469372212545466 21.072951939165762 85.22433291656975 C 0.0 **** -0.24
18777 H 17.866099330934816 20.419830672731564 85.85368980869951 H 0.0 **** 0.06
18778 H 19.309135745471593 21.46000646057658 85.80244086006186 H 0.0 **** 0.06
18779 H 17.85816371341619 21.903259104565905 84.87110226086986 H 0.0 **** 0.06
18780 H 18.845488081786158 20.50973064322261 84.37018283368725 H 0.0 **** 0.06
18781 C 32.80348344533977 39.33816874928101 78.29157007135284 C 0.0 **** -0.24
18782 H 31.885389246687538 39.9185911757084 78.37981152702541 H 0.0 **** 0.06
18783 H 32.76636807723046 38.737031573703916 77.3821475280029 H 0.0 **** 0.06
18784 H 32.9025242170502 38.682165149725165 79.15699192517991 H 0.0 **** 0.06
18785 H 33.65823579162097 40.01245498939659 78.2470483729928 H 0.0 **** 0.06
18786 C 45.97501601820943 35.30924458849543 76.84634626687233 C 0.0 **** -0.24
18787 H 45.28877819172084 35.77022253924042 77.55777846984171 H 0.0 **** 0.06
18788 H 46.29828202974778 36.054052536237805 76.11880316747204 H 0.0 **** 0.06
18789 H 45.46905454473011 34.49250345219127 76.33096032922009 H 0.0 **** 0.06
18790 H 46.84221893690727 34.919656152990996 77.3794894732028 H 0.0 **** 0.06
18791 C 80.64706869983927 83.09050041905323 26.671792871804485 C 0.0 **** -0.24
18792 H 81.13263592535947 83.91681355954694 27.191169234478053 H 0.0 **** 0.06
18793 H 80.08414306029324 83.47667735276593 25.822207197798917 H 0.0 **** 0.06
18794 H 79.96934732017803 82.57922637014633 27.355718546355092 H 0.0 **** 0.06
18795 H 81.40415933531597 82.39023958626765 26.31828715982715 H 0.0 **** 0.06
18796 C 57.06130145937368 35.262884251105504 81.37918216429938 C 0.0 **** -0.24
18797 H 57.63537362554816 34.34902979313293 81.22785839363019 H 0.0 **** 0.06
18798 H 57.55100611287266 36.088707101182536 80.86218336966951 H 0.0 **** 0.06
18799 H 57.00317222414327 35.483592390494834 82.44507176763261 H 0.0 **** 0.06
18800 H 56.05542047940633 35.12950559912417 80.98040986533692 H 0.0 **** 0.06
18801 C 79.47498537077638 105.138649406186 106.393486620397 C 0.0 **** -0.24
18802 H 79.44259038070521 106.1745119207219 106.05650869403212 H 0.0 **** 0.06
18803 H 80.51327042501447 104.81830523358144 106.48642503495088 H 0.0 **** 0.06
18804 H 78.96222933000593 104.5050129995239 105.66957993007125 H 0.0 **** 0.06
18805 H 78.98121577126494 105.056291845131 107.36204099470598 H 0.0 **** 0.06
18806 C 48.30663153544333 76.2700253130788 36.624657298705586 C 0.0 **** -0.24
18807 H 48.881987505169064 75.66238743799812 35.92576425740259 H 0.0 **** 0.06
18808 H 48.906919686720926 77.12367145291225 36.94187680435948 H 0.0 **** 0.06
18809 H 48.04059803294757 75.66936857209248 37.49488165170908 H 0.0 **** 0.06
18810 H 47.399187256230135 76.6247822649488 36.13724468553431 H 0.0 **** 0.06
18811 C 60.66744967445703 78.2341189068257 60.92160579862019 C 0.0 **** -0.24
18812 H 61.20922437847133 77.96991183397336 61.82910481407427 H 0.0 **** 0.06
18813 H 60.994766413361276 79.2147627570456 60.574898186065354 H 0.0 **** 0.06
18814 H 59.597977210053756 78.25969438658171 61.13132773332853 H 0.0 **** 0.06
18815 H 60.86770492182859 77.48951958888472 60.149955931461804 H 0.0 **** 0.06
18816 C 51.55918852852557 4.585933212946472 107.47494077146925 C 0.0 **** -0.24
18817 H 50.882399914047255 4.5402180358519075 106.62241219885864 H 0.0 **** 0.06
18818 H 52.22689387365011 5.440749986477343 107.36344354563289 H 0.0 **** 0.06
18819 H 52.14681390892224 3.669644754917286 107.52148701836774 H 0.0 **** 0.06
18820 H 50.9806464174826 4.693120074539507 108.39242032301787 H 0.0 **** 0.06
18821 C 62.0164462798887 29.17495254040807 82.70996853567885 C 0.0 **** -0.24
18822 H 61.31294562050269 28.57609410328172 83.29012129817511 H 0.0 **** 0.06
18823 H 63.02572090621365 29.018493562256936 83.09157445876474 H 0.0 **** 0.06
18824 H 61.75302014143098 30.229018756960727 82.79673722940424 H 0.0 **** 0.06
18825 H 61.97204270858377 28.873033299094743 81.66309133397533 H 0.0 **** 0.06
18826 C 39.504868467042115 39.59749834719668 74.55889506672412 C 0.0 **** -0.24
18827 H 38.77336410598559 40.02777235113399 73.87526478869239 H 0.0 **** 0.06
18828 H 39.68961473097323 38.55809180126499 74.28583164881877 H 0.0 **** 0.06
18829 H 39.12012878427828 39.64282522101354 75.57817355090424 H 0.0 **** 0.06
18830 H 40.43571962056086 40.16057599694955 74.4965381244553 H 0.0 **** 0.06
18831 C 63.581250334731294 60.61059483481519 27.021281809823705 C 0.0 **** -0.24
18832 H 63.47521366196861 61.47927713592077 26.371051048306867 H 0.0 **** 0.06
18833 H 64.18406511212805 59.85301105315882 26.520260950293732 H 0.0 **** 0.06
18834 H 62.5962362817894 60.20207663965101 27.246088193525964 H 0.0 **** 0.06
18835 H 64.0711562159853 60.909850747985274 27.94908349775136 H 0.0 **** 0.06
18836 C 60.43562115466477 91.3670382872412 9.934842646377973 C 0.0 **** -0.24
18837 H 60.641555092400154 90.45139763953225 10.48897903557517 H 0.0 **** 0.06
18838 H 61.138207973753765 91.45400324359059 9.105812726013951 H 0.0 **** 0.06
18839 H 60.547662641050294 92.2253509784262 10.59840487780778 H 0.0 **** 0.06
18840 H 59.417625914752534 91.33680932675964 9.547609400449986 H 0.0 **** 0.06
18841 C 70.57917145301654 101.11647655846502 89.43364154015475 C 0.0 **** -0.24
18842 H 70.55385283535422 100.10925402332877 89.85099094442722 H 0.0 **** 0.06
18843 H 70.3347175444578 101.83867004488374 90.21289606178865 H 0.0 **** 0.06
18844 H 69.85099698775309 101.19172472928165 88.6257440109715 H 0.0 **** 0.06
18845 H 71.57585917063076 101.32275043021068 89.04459478915558 H 0.0 **** 0.06
18846 C 89.93760706666016 34.949581721484265 31.792033640220524 C 0.0 **** -0.24
18847 H 90.11253013898002 34.96613264064899 32.86758591539126 H 0.0 **** 0.06
18848 H 89.07600730546976 34.31788912221748 31.573932548220853 H 0.0 **** 0.06
18849 H 90.8177655580415 34.549943448061526 31.28819436093579 H 0.0 **** 0.06
18850 H 89.74540901386568 35.961912732844155 31.43958583316791 H 0.0 **** 0.06
18851 C 57.11684015714985 94.74810799581905 28.030527599871192 C 0.0 **** -0.24
18852 H 56.715425240545244 93.80560910375573 28.401164308755227 H 0.0 **** 0.06
18853 H 56.644380365905704 95.5770376828076 28.558462349150133 H 0.0 **** 0.06
18854 H 56.913770260747015 94.8339287659528 26.963263751584876 H 0.0 **** 0.06
18855 H 58.193471189403226 94.77531168115178 28.19844219134238 H 0.0 **** 0.06
18856 C 110.02625634908361 90.27190370783592 73.2237403645434 C 0.0 **** -0.24
18857 H 109.11111581239217 90.35858441366088 72.63643373530954 H 0.0 **** 0.06
18858 H 110.85886855342741 90.69825155712192 72.66243362146008 H 0.0 **** 0.06
18859 H 110.22678304107075 89.22076136319384 73.43071751606885 H 0.0 **** 0.06
18860 H 109.90617779134482 90.81117435390235 74.16285963039854 H 0.0 **** 0.06
18861 C 11.470471576216056 27.50312792443009 69.07282946829004 C 0.0 **** -0.24
18862 H 11.107570319991908 28.0578793298625 68.20641998703734 H 0.0 **** 0.06
18863 H 10.853032375976625 27.74081984548468 69.93901022955718 H 0.0 **** 0.06
18864 H 12.504793662536173 27.78279863719169 69.27500732747414 H 0.0 **** 0.06
18865 H 11.416543947119521 26.43412507511718 68.86817506832412 H 0.0 **** 0.06
18866 C 5.948966619327052 9.925184433382409 81.74070907384208 C 0.0 **** -0.24
18867 H 6.489080999814789 9.839621144209845 82.68327582471818 H 0.0 **** 0.06
18868 H 6.4349987624719915 10.669663150096898 81.10907864799739 H 0.0 **** 0.06
18869 H 4.921111665756172 10.230222905005478 81.93688871835565 H 0.0 **** 0.06
18870 H 5.951008326595328 8.960385081815827 81.23250948212467 H 0.0 **** 0.06
18871 C 40.06744471390615 74.85799657231783 26.933392820555298 C 0.0 **** -0.24
18872 H 41.14920615495364 74.93834657131603 26.82554197993275 H 0.0 **** 0.06
18873 H 39.760098037253066 73.82770404823418 26.750808244957966 H 0.0 **** 0.06
18874 H 39.58123402428033 75.51576166140347 26.212947135983654 H 0.0 **** 0.06
18875 H 39.78071339921544 75.14974952340697 27.94346711210943 H 0.0 **** 0.06
18876 C 59.79532617879312 109.75657031152599 54.27546101470761 C 0.0 **** -0.24
18877 H 59.553806740720404 108.69323815589112 54.26561876147241 H 0.0 **** 0.06
18878 H 59.217812576406885 110.25153764443485 55.05616781366204 H 0.0 **** 0.06
18879 H 59.548690756562706 110.1936152856299 53.307508317288104 H 0.0 **** 0.06
18880 H 60.85944063252691 109.88471928688048 54.47182028199104 H 0.0 **** 0.06
18881 C 48.049641184437434 0.4699179371913971 94.96921885554286 C 0.0 **** -0.24
18882 H 47.53603712057904 -0.4791192080661659 95.12483094734242 H 0.0 **** 0.06
18883 H 48.5818738816217 0.7480650722873463 95.87871720359232 H 0.0 **** 0.06
18884 H 47.32108288600756 1.241766188384517 94.72313398291182 H 0.0 **** 0.06
18885 H 48.7603904181459 0.3671736406077173 94.14912625306111 H 0.0 **** 0.06
18886 C 26.259476154692376 12.792410016343354 10.330097754303528 C 0.0 **** -0.24
18887 H 25.38204240673241 13.405518002200438 10.124668102393615 H 0.0 **** 0.06
18888 H 27.022745312050453 12.987847654097777 9.575903396408108 H 0.0 **** 0.06
18889 H 25.9813796719598 11.738821989492465 10.300359627934306 H 0.0 **** 0.06
18890 H 26.651755886135994 13.037582399259747 11.316462690175555 H 0.0 **** 0.06
18891 C 54.164400898553026 15.622512575539304 95.99439295802341 C 0.0 **** -0.24
18892 H 53.256720396925374 15.239456495491794 96.46071996452247 H 0.0 **** 0.06
18893 H 54.13028854053337 16.71221889554704 95.97723906820914 H 0.0 **** 0.06
18894 H 54.23627639299863 15.245024944007383 94.97505706488224 H 0.0 **** 0.06
18895 H 55.032586709515954 15.295533756421577 96.56605015307571 H 0.0 **** 0.06
18896 C 99.3537557191262 100.31848547611753 39.73299479772595 C 0.0 **** -0.24
18897 H 98.89488231915792 100.77436622097275 38.85510372792305 H 0.0 **** 0.06
18898 H 99.96801488744684 101.0583406824855 40.246502045940815 H 0.0 **** 0.06
18899 H 99.97741494409237 99.48073973689736 39.42301912685525 H 0.0 **** 0.06
18900 H 98.57465363659465 99.96220438390526 40.40707897001778 H 0.0 **** 0.06
18901 C 63.71314883204599 1.516219348044885 90.38888736555487 C 0.0 **** -0.24
18902 H 62.924693590031524 0.8451957798211254 90.7296430424081 H 0.0 **** 0.06
18903 H 64.0909261340021 1.1724161418751464 89.42582069445419 H 0.0 **** 0.06
18904 H 64.52393803601024 1.5231394121987165 91.11778978876703 H 0.0 **** 0.06
18905 H 63.31142042815401 2.5246114413698564 90.28268247553734 H 0.0 **** 0.06
18906 C 55.57441169886624 67.43595625690818 66.36752656709241 C 0.0 **** -0.24
18907 H 55.39533494497442 68.44755701858213 66.7339542215851 H 0.0 **** 0.06
18908 H 54.64921711496169 66.86194709300202 66.42071682385922 H 0.0 **** 0.06
18909 H 56.335869200033926 66.9565916492578 66.98203265701257 H 0.0 **** 0.06
18910 H 55.91550190031762 67.48086102374907 65.332931573623 H 0.0 **** 0.06
18911 C 42.181016072261116 24.544877751181588 66.47223833889564 C 0.0 **** -0.24
18912 H 42.2057291241685 24.287632393206298 65.41227044597377 H 0.0 **** 0.06
18913 H 43.02923137118319 24.08338098558763 66.97775912841598 H 0.0 **** 0.06
18914 H 41.25285739476614 24.180832852661712 66.91225366682626 H 0.0 **** 0.06
18915 H 42.236693679522205 25.627743050904133 66.58387830224886 H 0.0 **** 0.06
18916 C 60.79269822640151 23.797133820082948 28.83623446419213 C 0.0 **** -0.24
18917 H 60.51968326819521 24.107973057758443 27.827372939601048 H 0.0 **** 0.06
18918 H 61.4707241486048 22.945290786557578 28.78244753092153 H 0.0 **** 0.06
18919 H 59.89457830470299 23.512831794607408 29.384565292167025 H 0.0 **** 0.06
18920 H 61.28576384546044 24.622863619975817 29.34920358954021 H 0.0 **** 0.06
18921 C 104.94755956726215 64.44714167944024 68.33267506257562 C 0.0 **** -0.24
18922 H 105.88564494464151 64.84780933067373 68.71707329325858 H 0.0 **** 0.06
18923 H 105.12821195482366 63.95373886252956 67.37793683563044 H 0.0 **** 0.06
18924 H 104.23633286326339 65.26078091640267 68.19399756563865 H 0.0 **** 0.06
18925 H 104.54216504983577 63.72703710427432 69.04366270856045 H 0.0 **** 0.06
18926 C 26.594042553875795 45.35594288795119 88.68481003025082 C 0.0 **** -0.24
18927 H 25.632106993870536 45.05221106950137 88.27238710329118 H 0.0 **** 0.06
18928 H 26.517414700851532 46.370397951194605 89.07599262721905 H 0.0 **** 0.06
18929 H 27.351679648190043 45.324155562823194 87.90171020298021 H 0.0 **** 0.06
18930 H 26.875015451674983 44.676302604743455 89.48985853253271 H 0.0 **** 0.06
18931 C 103.12604650798897 69.00314961471959 21.626835036674777 C 0.0 **** -0.24
18932 H 102.85998195380743 70.0598462693975 21.67017813094924 H 0.0 **** 0.06
18933 H 103.95604933149043 68.86645680315029 20.933790225797566 H 0.0 **** 0.06
18934 H 102.2667161153286 68.42680662598273 21.28374644929238 H 0.0 **** 0.06
18935 H 103.41994567848614 68.66120300819605 22.618712790504446 H 0.0 **** 0.06
18936 C 94.24468493373104 59.57087194746788 17.258140734404435 C 0.0 **** -0.24
18937 H 95.25706747095228 59.5775334681295 17.66342213075157 H 0.0 **** 0.06
18938 H 94.26046631280798 59.151389747864755 16.251901003644704 H 0.0 **** 0.06
18939 H 93.86257568899958 60.59125677927875 17.22172545175029 H 0.0 **** 0.06
18940 H 93.60195514995598 58.964690341291316 17.895329042481205 H 0.0 **** 0.06
18941 C 17.035420553059737 13.36453910998921 75.57125201448315 C 0.0 **** -0.24
18942 H 16.958489151225606 12.277106725204021 75.55291808522907 H 0.0 **** 0.06
18943 H 18.055906775907616 13.660253852127141 75.32769628190522 H 0.0 **** 0.06
18944 H 16.779466943230304 13.729381582115565 76.56597732925275 H 0.0 **** 0.06
18945 H 16.348613206660787 13.788731023890193 74.84019694169473 H 0.0 **** 0.06
18946 C 62.62436323042081 80.66051079720017 1.5174748153417799 C 0.0 **** -0.24
18947 H 62.25757247090564 80.41714531388743 0.5206736940246417 H 0.0 **** 0.06
18948 H 63.64957333206155 80.3043973172048 1.624513267987048 H 0.0 **** 0.06
18949 H 61.992473898345054 80.18028746633541 2.2644621951130803 H 0.0 **** 0.06
18950 H 62.597393298530534 81.74109829722227 1.6604015296577224 H 0.0 **** 0.06
18951 C 108.39309288236201 2.8679596609689497 9.540042872266767 C 0.0 **** -0.24
18952 H 108.31104244174006 2.9566843594374177 8.457147058769849 H 0.0 **** 0.06
18953 H 107.75427073893022 2.056523717345158 9.887412508603262 H 0.0 **** 0.06
18954 H 108.07889460741357 3.8024821900963843 10.005041611100339 H 0.0 **** 0.06
18955 H 109.42847735372168 2.6577582836002875 9.81001353519018 H 0.0 **** 0.06
18956 C 90.85250097629739 76.6749895402168 51.09041830333868 C 0.0 **** -0.24
18957 H 90.03550971174275 77.39665581351103 51.06488720552936 H 0.0 **** 0.06
18958 H 91.79906370894076 77.19276235951409 50.93435726158904 H 0.0 **** 0.06
18959 H 90.70824969478974 75.93613492479541 50.30261241408609 H 0.0 **** 0.06
18960 H 90.86563100287384 76.17593095498754 52.05868933783232 H 0.0 **** 0.06
18961 C 5.631472863349559 34.45906147562495 3.1941444842856583 C 0.0 **** -0.24
18962 H 4.869975102238206 34.25668872790608 2.4399878446145067 H 0.0 **** 0.06
18963 H 5.162414378922019 34.90018011616972 4.074319055368278 H 0.0 **** 0.06
18964 H 6.369088954179153 35.15032502345234 2.788240714538034 H 0.0 **** 0.06
18965 H 6.122350465549783 33.52602136813904 3.4732808964533604 H 0.0 **** 0.06
18966 C 99.81026968242388 46.82324586786257 100.81954863226045 C 0.0 **** -0.24
18967 H 100.76775598349512 46.5058928618307 101.23189891491914 H 0.0 **** 0.06
18968 H 99.54719275984554 47.80093162539205 101.2252479087709 H 0.0 **** 0.06
18969 H 99.04101672405656 46.09927603491605 101.08761258101383 H 0.0 **** 0.06
18970 H 99.8859144438298 46.8889661939661 99.73357095971797 H 0.0 **** 0.06
18971 C 33.50660219634434 47.41375168959211 87.7525893854916 C 0.0 **** -0.24
18972 H 33.23228724589488 47.0458114914041 86.76337044884923 H 0.0 **** 0.06
18973 H 34.30653027611687 48.14885641554223 87.65725364340591 H 0.0 **** 0.06
18974 H 33.84769675668735 46.581845334659285 88.36793887751605 H 0.0 **** 0.06
18975 H 32.63894144665058 47.879700831499775 88.21853348015179 H 0.0 **** 0.06
18976 C 32.03126198078388 70.11645072950449 12.973480468471351 C 0.0 **** -0.24
18977 H 31.546834451009914 71.06309597483971 13.210413837701434 H 0.0 **** 0.06
18978 H 31.94814196426762 69.44285572150915 13.827463285341057 H 0.0 **** 0.06
18979 H 33.08414354240867 70.29223145321276 12.74975886267925 H 0.0 **** 0.06
18980 H 31.5459769688498 69.66680443331802 12.107440413102587 H 0.0 **** 0.06
18981 C 25.038323587427175 85.11183736037594 12.716282404317482 C 0.0 **** -0.24
18982 H 25.830796521777998 85.8408850567148 12.886816453318744 H 0.0 **** 0.06
18983 H 25.241150777479817 84.21230877217681 13.296871885087484 H 0.0 **** 0.06
18984 H 24.99815741885726 84.86014701348776 11.657121267537661 H 0.0 **** 0.06
18985 H 24.082129441319044 85.53616541459596 13.024793767875025 H 0.0 **** 0.06
18986 C 12.276856017317485 36.33787264747612 53.97959482499334 C 0.0 **** -0.24
18987 H 13.316801650558133 36.30790972427478 54.30259477096126 H 0.0 **** 0.06
18988 H 11.949537700712966 37.37460491079735 53.90563786921252 H 0.0 **** 0.06
18989 H 11.656267508203044 35.81154421779202 54.704938899866114 H 0.0 **** 0.06
18990 H 12.184965772070186 35.856497373020744 53.00625894673174 H 0.0 **** 0.06
18991 C 31.09638362363154 83.19410902650189 109.28701903527998 C 0.0 **** -0.24
18992 H 31.258671660195716 82.20670549806124 109.71846957048278 H 0.0 **** 0.06
18993 H 32.04804907635176 83.6041223827599 108.94959404805351 H 0.0 **** 0.06
18994 H 30.66289606853681 83.85354557908623 110.03988142526019 H 0.0 **** 0.06
18995 H 30.414520511619003 83.11186749470464 108.4400315452344 H 0.0 **** 0.06
18996 C 57.17612342598185 1.4730709457005275 90.32676022909654 C 0.0 **** -0.24
18997 H 58.01700819582225 1.556886028052702 89.63827960600727 H 0.0 **** 0.06
18998 H 56.24712146349231 1.6762953177930768 89.79282015086426 H 0.0 **** 0.06
18999 H 57.29544870038897 2.1934915357050215 91.13590260024573 H 0.0 **** 0.06
19000 H 57.14430260284779 0.46448179069962237 90.74062996261962 H 0.0 **** 0.06
19001 C 93.95163649732558 10.423238872294519 86.60484522219389 C 0.0 **** -0.24
19002 H 94.19574253275108 11.189335391382627 85.86809481769069 H 0.0 **** 0.06
19003 H 93.10036103407326 10.75121270879265 87.20145982493659 H 0.0 **** 0.06
19004 H 94.81058563644659 10.258986826951826 87.25569880624909 H 0.0 **** 0.06
19005 H 93.70101948090209 9.494389491934129 86.09220140324749 H 0.0 **** 0.06
19006 C 67.87624360673374 53.2844724792817 100.44377416339505 C 0.0 **** -0.24
19007 H 67.4279443811397 52.46732595480222 99.8792132191015 H 0.0 **** 0.06
19008 H 67.19672290851742 53.591784791245544 101.23958605445068 H 0.0 **** 0.06
19009 H 68.06175384854839 54.127200135583024 99.77792900737846 H 0.0 **** 0.06
19010 H 68.81851860104769 52.950899560060066 100.87910128476875 H 0.0 **** 0.06
19011 C 62.42995261644195 60.518871846070624 106.60057368550979 C 0.0 **** -0.24
19012 H 63.06632400395432 60.00835828967513 107.32354747949304 H 0.0 **** 0.06
19013 H 62.5924850799377 61.594944100434816 106.66992414718607 H 0.0 **** 0.06
19014 H 61.38406335905714 60.294652700101665 106.81506441103035 H 0.0 **** 0.06
19015 H 62.675779199510586 60.17799243502532 105.5958671873169 H 0.0 **** 0.06
19016 C 1.1414257600971212 97.21755588595505 12.952398064329259 C 0.0 **** -0.24
19017 H 1.9365920756533228 97.70743914105006 12.390420610755939 H 0.0 **** 0.06
19018 H 0.7862953926041598 96.34914448672149 12.39693624718791 H 0.0 **** 0.06
19019 H 0.3183512332345799 97.91642722749489 13.101920334858875 H 0.0 **** 0.06
19020 H 1.5259960345196646 96.8974736092831 13.921574441344987 H 0.0 **** 0.06
19021 C 58.97441393326763 79.27581267234723 92.9477314569054 C 0.0 **** -0.24
19022 H 59.22174459865606 78.95153675211088 91.93673273358586 H 0.0 **** 0.06
19023 H 58.498188248602155 80.25538914007598 92.90818700112749 H 0.0 **** 0.06
19024 H 59.885768820807044 79.33790829226268 93.54168944350289 H 0.0 **** 0.06
19025 H 58.29243069484708 78.55751698511568 93.40259505445007 H 0.0 **** 0.06
19026 C 13.032175415353805 69.68494208310847 45.35313656867271 C 0.0 **** -0.24
19027 H 12.345725033255036 70.4631765168233 45.687520778379735 H 0.0 **** 0.06
19028 H 12.472593753281203 68.77343214405994 45.14482984859154 H 0.0 **** 0.06
19029 H 13.767658660218743 69.48987148470843 46.1336624140408 H 0.0 **** 0.06
19030 H 13.541833916245054 70.0150856265225 44.447939249678655 H 0.0 **** 0.06
19031 C 18.28405090525945 10.797929390904912 84.42503313763387 C 0.0 **** -0.24
19032 H 19.008681929239486 10.822635349512865 85.23826998738895 H 0.0 **** 0.06
19033 H 17.633240310205082 9.931082106130077 84.54578146782058 H 0.0 **** 0.06
19034 H 18.81000421893819 10.727929530289188 83.47296913999628 H 0.0 **** 0.06
19035 H 17.685147512826944 11.708374331885096 84.444280498073 H 0.0 **** 0.06
19036 C 71.4202865516751 95.78316893249189 52.37310674190127 C 0.0 **** -0.24
19037 H 72.28551654969903 95.24446717549756 51.987569237761136 H 0.0 **** 0.06
19038 H 71.01676075095047 96.42922463338721 51.59242769733578 H 0.0 **** 0.06
19039 H 71.72066504236483 96.38964867254987 53.2281382444549 H 0.0 **** 0.06
19040 H 70.65688066457257 95.06972428721951 52.68460466751981 H 0.0 **** 0.06
19041 C 39.35151890982318 7.5837528869411415 96.01880119119052 C 0.0 **** -0.24
19042 H 39.552252729779205 6.789523551732543 96.73692121072109 H 0.0 **** 0.06
19043 H 40.17163648396078 8.302024681671838 96.03395233490868 H 0.0 **** 0.06
19044 H 38.42228834216943 8.087982402771388 96.28555185756665 H 0.0 **** 0.06
19045 H 39.26026160273976 7.156898654036269 95.02046995655503 H 0.0 **** 0.06
19046 C 70.0352151189004 12.22774876557622 74.5270373006145 C 0.0 **** -0.24
19047 H 71.03015929058296 12.372975153986623 74.10716817515441 H 0.0 **** 0.06
19048 H 69.83417137094773 11.161146087379148 74.62412406101598 H 0.0 **** 0.06
19049 H 69.29344976426069 12.679254608321699 73.86708242307637 H 0.0 **** 0.06
19050 H 69.98225418617585 12.699036305163446 75.50795517528877 H 0.0 **** 0.06
19051 C 67.08551956388192 18.15552444560643 60.71767235375921 C 0.0 **** -0.24
19052 H 66.60690114727464 18.25265993901985 59.74311458348815 H 0.0 **** 0.06
19053 H 67.66864143270647 19.052847678457113 60.92559938741951 H 0.0 **** 0.06
19054 H 67.7434141795126 17.286579863742247 60.71425035700415 H 0.0 **** 0.06
19055 H 66.3227315490333 18.03193243536475 61.48665103265634 H 0.0 **** 0.06
19056 C 28.915424492023817 53.8853096062928 42.154887935501094 C 0.0 **** -0.24
19057 H 28.462099172012017 54.687445158246625 41.57322961695262 H 0.0 **** 0.06
19058 H 29.402235923911803 53.17894081940693 41.48200568045144 H 0.0 **** 0.06
19059 H 28.14315795097332 53.3696210022525 42.72693466321502 H 0.0 **** 0.06
19060 H 29.653651817387185 54.30539401916629 42.83867319396684 H 0.0 **** 0.06
19061 C 79.14986798901653 19.512729629443353 10.189571111723932 C 0.0 **** -0.24
19062 H 78.86353341321295 20.50480054904461 10.539651910191257 H 0.0 **** 0.06
19063 H 78.38855276353993 18.790429585834005 10.483894910135472 H 0.0 **** 0.06
19064 H 80.10524017051314 19.234341785616508 10.63297371842259 H 0.0 **** 0.06
19065 H 79.24125273960384 19.52363503626932 9.103755473951642 H 0.0 **** 0.06
19066 C 8.299473251544555 43.66168136237019 92.62869406785796 C 0.0 **** -0.24
19067 H 8.356218816699595 43.09480140051173 93.55729716920608 H 0.0 **** 0.06
19068 H 7.98242986988862 43.00347446736677 91.81955568218993 H 0.0 **** 0.06
19069 H 9.280139472114058 44.07764272139997 92.39630931126288 H 0.0 **** 0.06
19070 H 7.579380723550173 44.471697445846985 92.74125244611452 H 0.0 **** 0.06
19071 C 71.00891249417367 28.94937013064282 19.037397715678402 C 0.0 **** -0.24
19072 H 71.57985127928404 29.68639154195543 19.60066940097656 H 0.0 **** 0.06
19073 H 70.41987668525852 28.342288814127457 19.725176637478448 H 0.0 **** 0.06
19074 H 71.69277880237632 28.307001094978858 18.480961090061644 H 0.0 **** 0.06
19075 H 70.34317244463068 29.460226418823964 18.340905913513797 H 0.0 **** 0.06
19076 C 63.60123469213579 85.76507329694142 65.68060009602453 C 0.0 **** -0.24
19077 H 63.70410232257632 85.49018019935782 66.73028707873573 H 0.0 **** 0.06
19078 H 63.88060526335363 84.91832638318247 65.0542029021222 H 0.0 **** 0.06
19079 H 64.25287533355583 86.61120532587033 65.46064137534387 H 0.0 **** 0.06
19080 H 62.56628438719048 86.04259780283344 65.47815554027346 H 0.0 **** 0.06
19081 C 69.26477000655501 87.21932981295754 49.67476302842567 C 0.0 **** -0.24
19082 H 68.43654983535083 87.70779224831136 49.161802496381995 H 0.0 **** 0.06
19083 H 69.90460037257878 87.97406741328024 50.13298244432889 H 0.0 **** 0.06
19084 H 69.84386942518717 86.63679422086881 48.958285620464835 H 0.0 **** 0.06
19085 H 68.87300866244163 86.5568433256982 50.4481203540538 H 0.0 **** 0.06
19086 C 21.3930450817505 77.66605533423525 108.02057575894037 C 0.0 **** -0.24
19087 H 22.365581106365227 78.11631595170493 107.81940459889333 H 0.0 **** 0.06
19088 H 20.86908409513019 78.25605634984636 108.77245368156599 H 0.0 **** 0.06
19089 H 21.53311481643064 76.64991971013939 108.3888685486854 H 0.0 **** 0.06
19090 H 20.806704794190708 77.64234920672838 107.10229269078624 H 0.0 **** 0.06
19091 C 40.60889839932622 6.722184540035144 49.55906462676659 C 0.0 **** -0.24
19092 H 40.717562732943975 5.673412597589547 49.282655132280915 H 0.0 **** 0.06
19093 H 39.75111485402863 6.834590297736014 50.22368494669773 H 0.0 **** 0.06
19094 H 40.45572191940937 7.321052182009012 48.662335486517044 H 0.0 **** 0.06
19095 H 41.51055162030423 7.057861307639911 50.07078748063762 H 0.0 **** 0.06
19096 C 64.48377990505867 21.58508959411449 31.241839664556935 C 0.0 **** -0.24
19097 H 65.51951878982277 21.785920540191846 30.968931990550473 H 0.0 **** 0.06
19098 H 64.08367503518542 20.800973035221787 30.597998756495215 H 0.0 **** 0.06
19099 H 63.89327659449316 22.49235640729267 31.11945732738512 H 0.0 **** 0.06
19100 H 64.43979902349918 21.25921520424049 32.2812771657099 H 0.0 **** 0.06
19101 C 17.32178412673403 72.12273924143608 74.62974630322601 C 0.0 **** -0.24
19102 H 18.04019363643505 72.90581345620319 74.86946325280572 H 0.0 **** 0.06
19103 H 17.416472928251125 71.85280883241427 73.5776776905367 H 0.0 **** 0.06
19104 H 16.311740663690415 72.4842847582384 74.82324510426801 H 0.0 **** 0.06
19105 H 17.519700737357226 71.2471048124446 75.24819525667911 H 0.0 **** 0.06
19106 C 73.52438369890758 15.214756635678782 72.45017916327055 C 0.0 **** -0.24
19107 H 74.03641103821856 14.398328957669605 71.93872760829532 H 0.0 **** 0.06
19108 H 73.84312032681318 15.246045833110315 73.49267748168833 H 0.0 **** 0.06
19109 H 72.44759099170997 15.052813797984186 72.40246429233184 H 0.0 **** 0.06
19110 H 73.77226185911134 16.15823545520982 71.96523401228376 H 0.0 **** 0.06
19111 C 45.98993744679444 24.32178187916844 101.18127980608261 C 0.0 **** -0.24
19112 H 45.89796213200469 25.405680104687008 101.24634808655306 H 0.0 **** 0.06
19113 H 46.92923391098316 24.009286580960833 101.63929580313058 H 0.0 **** 0.06
19114 H 45.978218667905026 24.01932709709604 100.13449498090782 H 0.0 **** 0.06
19115 H 45.15616568542828 23.854090067051516 101.70471436757512 H 0.0 **** 0.06
19116 C 80.37639926356584 0.9228064248871997 76.84679010813932 C 0.0 **** -0.24
19117 H 80.65626304719142 0.07155072253140027 76.22549406988026 H 0.0 **** 0.06
19118 H 80.99172782338705 1.783156362979632 76.58120859007533 H 0.0 **** 0.06
19119 H 80.534482935017 0.6726422508929168 77.89588646898284 H 0.0 **** 0.06
19120 H 79.32577379881788 1.162544390199602 76.684123102243 H 0.0 **** 0.06
19121 C 8.988281398060138 7.123159191872432 13.158734723376533 C 0.0 **** -0.24
19122 H 9.931177771178696 7.541980803815164 12.806659966028345 H 0.0 **** 0.06
19123 H 8.732199540343004 6.248859382093144 12.559636487289843 H 0.0 **** 0.06
19124 H 8.200568842800337 7.871264303163173 13.065073387336742 H 0.0 **** 0.06
19125 H 9.089179437918247 6.830532278418275 14.203569052851172 H 0.0 **** 0.06
19126 C 8.158859586518016 85.88939108931629 29.8548882940619 C 0.0 **** -0.24
19127 H 7.691254133974061 86.87247716635738 29.80714311652799 H 0.0 **** 0.06
19128 H 8.773545499920276 85.82300935249498 30.75293587434495 H 0.0 **** 0.06
19129 H 8.784104573809401 85.74056273437995 28.97391745848823 H 0.0 **** 0.06
19130 H 7.386534138368287 85.12151510403305 29.885556726886307 H 0.0 **** 0.06
19131 C 26.63386418047037 91.01699591910564 60.21163318534889 C 0.0 **** -0.24
19132 H 27.481327328527556 90.93533180047177 59.52967570279287 H 0.0 **** 0.06
19133 H 25.71806192933542 91.15731352858472 59.63670190370692 H 0.0 **** 0.06
19134 H 26.781659753401215 91.86932725201474 60.87327311586026 H 0.0 **** 0.06
19135 H 26.55590604290694 90.1053331596896 60.80352105080124 H 0.0 **** 0.06
19136 C 22.683437760058233 58.211920187738286 32.607306767263495 C 0.0 **** -0.24
19137 H 21.850426892479984 57.53696107702885 32.41494319583594 H 0.0 **** 0.06
19138 H 22.984766464910393 58.69153609409372 31.67501313257803 H 0.0 **** 0.06
19139 H 23.52308026499959 57.64635768410767 33.01290917613334 H 0.0 **** 0.06
19140 H 22.37727613978706 58.97241671703489 33.32509767228187 H 0.0 **** 0.06
19141 C 41.45116919412999 87.46362327327232 13.717723198701037 C 0.0 **** -0.24
19142 H 40.60720946872149 87.04728432767412 14.268022765122709 H 0.0 **** 0.06
19143 H 41.55468703007445 86.94375005590157 12.764983120184468 H 0.0 **** 0.06
19144 H 42.36279818814731 87.33757434410596 14.301759990439592 H 0.0 **** 0.06
19145 H 41.27881664856892 88.52517862342016 13.53650609719503 H 0.0 **** 0.06
19146 C 25.462757447512644 105.03032654885862 68.39506765283068 C 0.0 **** -0.24
19147 H 25.259509360520838 103.96010260469177 68.35355052567172 H 0.0 **** 0.06
19148 H 25.149018553513713 105.49592318785335 67.46008130332729 H 0.0 **** 0.06
19149 H 26.53148325070441 105.19120625562854 68.54028701027448 H 0.0 **** 0.06
19150 H 24.912488887811918 105.47256608025498 69.2251010267712 H 0.0 **** 0.06
19151 C 1.8786481686944683 77.30181859405312 76.09249259800293 C 0.0 **** -0.24
19152 H 1.7608275046007975 78.23957749626055 75.54890976432506 H 0.0 **** 0.06
19153 H 1.446657871329279 77.40203666092083 77.08820412939633 H 0.0 **** 0.06
19154 H 2.938909863137795 77.06268710390151 76.1783589600305 H 0.0 **** 0.06
19155 H 1.3687331565396477 76.50269757573525 75.55321801421172 H 0.0 **** 0.06
19156 C 50.97798111592377 79.01018598070802 86.31915840976731 C 0.0 **** -0.24
19157 H 50.35992893281002 79.86942252788616 86.05621573027221 H 0.0 **** 0.06
19158 H 51.750500268923474 78.8740541054811 85.56330265048956 H 0.0 **** 0.06
19159 H 50.3543784766363 78.11707189419647 86.36778708971536 H 0.0 **** 0.06
19160 H 51.44336462939913 79.18165651703913 87.2902154700019 H 0.0 **** 0.06
19161 C 95.36891774349775 101.73046518774987 35.441133353330144 C 0.0 **** -0.24
19162 H 94.47286297557343 101.6914904046393 34.82122563283599 H 0.0 **** 0.06
19163 H 95.81150908037866 100.73645357470929 35.50152812017939 H 0.0 **** 0.06
19164 H 95.1042391848681 102.0724932495097 36.44102721427845 H 0.0 **** 0.06
19165 H 96.08620404958343 102.42211953589111 34.99796249567663 H 0.0 **** 0.06
19166 C 82.53359482099773 27.944191391857004 50.88818598591058 C 0.0 **** -0.24
19167 H 83.41654106815156 27.614067638578206 51.435796231934034 H 0.0 **** 0.06
19168 H 81.68631905980499 28.00985650681696 51.57076390004681 H 0.0 **** 0.06
19169 H 82.30951411506311 27.227557430473894 50.09764290284045 H 0.0 **** 0.06
19170 H 82.72465262181288 28.922848320178673 50.448782723256556 H 0.0 **** 0.06
19171 C 17.814119169513248 24.545763943374396 103.62712103799004 C 0.0 **** -0.24
19172 H 18.635769375824026 25.22950813054365 103.84204333132456 H 0.0 **** 0.06
19173 H 18.088147604341316 23.901323643367846 102.79186069174165 H 0.0 **** 0.06
19174 H 16.92416012465 25.119093541150278 103.36855039593323 H 0.0 **** 0.06
19175 H 17.610533051398477 23.935946760845468 104.50674901404687 H 0.0 **** 0.06
19176 C 13.102546517383978 63.411702591107726 54.375615068862565 C 0.0 **** -0.24
19177 H 12.711303156086519 62.774561778210725 53.582451182970146 H 0.0 **** 0.06
19178 H 13.53321940993175 64.31321378337961 53.93825454119484 H 0.0 **** 0.06
19179 H 13.87274250265553 62.87217397683257 54.92741465592466 H 0.0 **** 0.06
19180 H 12.294387482800087 63.68517570215484 55.053334863027295 H 0.0 **** 0.06
19181 C 41.64278903588434 96.31493391138551 56.39469268068903 C 0.0 **** -0.24
19182 H 40.624719818615354 95.92604061634015 56.371265918110595 H 0.0 **** 0.06
19183 H 42.02276317118356 96.2762142611162 57.41547971336137 H 0.0 **** 0.06
19184 H 41.644227007422096 97.34728817765496 56.044505091920485 H 0.0 **** 0.06
19185 H 42.277594989674306 95.71120538125597 55.74677991476197 H 0.0 **** 0.06
19186 C 47.01965145320008 16.491657974260576 102.61616443257603 C 0.0 **** -0.24
19187 H 45.9364375428961 16.37537389101118 102.62862695053792 H 0.0 **** 0.06
19188 H 47.304669059813364 17.147822912758627 101.7931927940492 H 0.0 **** 0.06
19189 H 47.48783896810079 15.516068816846428 102.48239217411157 H 0.0 **** 0.06
19190 H 47.348857031778664 16.926515741493134 103.55965111402855 H 0.0 **** 0.06
19191 C 14.714970573515679 11.68758272705665 98.08919160298088 C 0.0 **** -0.24
19192 H 15.23198929465089 11.80531279550047 99.04068880475535 H 0.0 **** 0.06
19193 H 15.39750994219839 11.928514841691651 97.27294068429505 H 0.0 **** 0.06
19194 H 13.857443260987804 12.358868267017556 98.05578032983281 H 0.0 **** 0.06
19195 H 14.374209833716531 10.657846483044779 97.98552833354584 H 0.0 **** 0.06
19196 C 20.919618990181654 103.67615954701216 108.8447472503498 C 0.0 **** -0.24
19197 H 20.090884514319058 104.0711920981729 108.25834370810982 H 0.0 **** 0.06
19198 H 21.09904049405813 104.32324028026164 109.70370371666105 H 0.0 **** 0.06
19199 H 21.81654797734862 103.6363027939667 108.22670230024771 H 0.0 **** 0.06
19200 H 20.672874286548176 102.67184249844331 109.19123696706679 H 0.0 **** 0.06
19201 C 29.436424123069315 26.850714535548548 104.1346054140752 C 0.0 **** -0.24
19202 H 29.730060966123546 26.608833308607927 103.11342297195483 H 0.0 **** 0.06
19203 H 30.254491874189824 27.370742177245887 104.63481459755114 H 0.0 **** 0.06
19204 H 29.205554867996227 25.93181525945647 104.67362141094898 H 0.0 **** 0.06
19205 H 28.55573224645066 27.492456693842882 104.11653510193368 H 0.0 **** 0.06
19206 C 38.572147065521335 32.30822242242711 74.28030616769655 C 0.0 **** -0.24
19207 H 39.245459107622594 31.47875264239176 74.49649707873482 H 0.0 **** 0.06
19208 H 39.086876905317126 33.25125880143795 74.46337799906576 H 0.0 **** 0.06
19209 H 37.69542052397841 32.241508294188826 74.9237434050533 H 0.0 **** 0.06
19210 H 38.260204378757095 32.26008148555618 73.23663333525269 H 0.0 **** 0.06
19211 C 19.43250044681122 73.86872939383295 80.8400130054431 C 0.0 **** -0.24
19212 H 19.473901156328083 72.78978217113331 80.99013501416383 H 0.0 **** 0.06
19213 H 18.391345728318612 74.1857707486858 80.76857464291197 H 0.0 **** 0.06
19214 H 19.95590102863852 74.12703783111249 79.9194494203114 H 0.0 **** 0.06
19215 H 19.90868968476076 74.37160053192787 81.68256047073635 H 0.0 **** 0.06
19216 C 72.51781473627443 83.9550557115129 49.32626583527315 C 0.0 **** -0.24
19217 H 72.80861093915595 84.89322160011602 49.80006760933293 H 0.0 **** 0.06
19218 H 72.92660441855963 83.11944875155785 49.89513996837849 H 0.0 **** 0.06
19219 H 72.90635093140415 83.92732163071992 48.308737886344375 H 0.0 **** 0.06
19220 H 71.43062964044896 83.88272550409204 49.30206615517409 H 0.0 **** 0.06
19221 C 41.663892661218284 103.07609007783716 54.81460254866215 C 0.0 **** -0.24
19222 H 41.11643495468783 103.16876895942545 53.87650317883234 H 0.0 **** 0.06
19223 H 41.58011761105291 102.05446998584821 55.18438062830004 H 0.0 **** 0.06
19224 H 41.24415806950451 103.7648397942084 55.54900061685039 H 0.0 **** 0.06
19225 H 42.71348655725831 103.31830630510348 54.64864571053615 H 0.0 **** 0.06
19226 C 33.85394918609711 107.73627390601665 58.985538265366316 C 0.0 **** -0.24
19227 H 34.29696880924547 108.71343320054261 59.176205583341186 H 0.0 **** 0.06
19228 H 33.44425177173301 107.7147038551606 57.97519993414192 H 0.0 **** 0.06
19229 H 33.05666776199888 107.55076306240024 59.70505322208517 H 0.0 **** 0.06
19230 H 34.61828328541675 106.96567683852727 59.083799421587386 H 0.0 **** 0.06
19231 C 1.4007229675181634 98.76117920787993 109.67952187702909 C 0.0 **** -0.24
19232 H 2.1147647776742957 97.94989395936048 109.82333530408116 H 0.0 **** 0.06
19233 H 1.627804156761698 99.57111031364514 110.37359358001055 H 0.0 **** 0.06
19234 H 0.3911803829345075 98.39423706880326 109.8683843616904 H 0.0 **** 0.06
19235 H 1.4691124301725154 99.12862684173398 108.65641837994019 H 0.0 **** 0.06
19236 C 72.85880345463977 10.018717784903489 12.263621202545252 C 0.0 **** -0.24
19237 H 73.35727457269047 9.302447833575938 12.916679873731553 H 0.0 **** 0.06
19238 H 73.39580203545887 10.967178290228691 12.28772404675098 H 0.0 **** 0.06
19239 H 71.83557044837926 10.172442203501008 12.60786501441271 H 0.0 **** 0.06
19240 H 72.84496944635697 9.634038542573027 11.24419626806798 H 0.0 **** 0.06
19241 C 20.69620941562519 102.10673948393419 43.978255874523995 C 0.0 **** -0.24
19242 H 20.56019405656005 102.6265209340341 43.029663855800266 H 0.0 **** 0.06
19243 H 19.744577702030057 102.06545782050154 44.50992281158133 H 0.0 **** 0.06
19244 H 21.42802240232652 102.64072632028926 44.58311078638883 H 0.0 **** 0.06
19245 H 21.05036104296829 101.09370389676465 43.788959214870175 H 0.0 **** 0.06
19246 C 93.3503055781037 77.55714007972881 32.86549886888588 C 0.0 **** -0.24
19247 H 94.05750786821471 76.76940208351809 32.60837742799873 H 0.0 **** 0.06
19248 H 93.05294028859939 77.45135913860656 33.90908405381276 H 0.0 **** 0.06
19249 H 92.47030855724395 77.47725635376037 32.226580556310466 H 0.0 **** 0.06
19250 H 93.81957676145663 78.52963311476367 32.71733485360619 H 0.0 **** 0.06
19251 C 87.04507582018803 20.946550712320224 7.164083679385556 C 0.0 **** -0.24
19252 H 87.59988509368993 20.268408846599254 6.515119081665745 H 0.0 **** 0.06
19253 H 86.1165132584563 20.468932263355732 7.479083666467744 H 0.0 **** 0.06
19254 H 86.81616447090592 21.862421217863883 6.620236745928423 H 0.0 **** 0.06
19255 H 87.64745015969974 21.184718560931493 8.040498502180071 H 0.0 **** 0.06
19256 C 92.96556653360958 95.08037032423431 82.52257455338133 C 0.0 **** -0.24
19257 H 93.03872118143009 96.10482720700594 82.1571142397645 H 0.0 **** 0.06
19258 H 92.03386666996035 94.95715440524296 83.07387745276861 H 0.0 **** 0.06
19259 H 93.80824421215114 94.86879155405194 83.18021461347166 H 0.0 **** 0.06
19260 H 92.9822818003978 94.39248174242198 81.67763041595617 H 0.0 **** 0.06
19261 C 58.567455628473155 57.81565272703057 38.295290313945095 C 0.0 **** -0.24
19262 H 58.24855938245514 57.66323544986855 37.2648812604163 H 0.0 **** 0.06
19263 H 57.857699009099235 58.46898418182974 38.8039870279801 H 0.0 **** 0.06
19264 H 59.556270484588794 58.27477419718733 38.30594000007914 H 0.0 **** 0.06
19265 H 58.607958314430775 56.85448553556074 38.80816351009848 H 0.0 **** 0.06
19266 C 18.033800884612845 101.8652544096751 27.72545843417288 C 0.0 **** -0.24
19267 H 19.1032238577464 101.65754564717702 27.764411194318882 H 0.0 **** 0.06
19268 H 17.494710316648508 101.10099741077074 28.285830955113738 H 0.0 **** 0.06
19269 H 17.70068762113476 101.85858742049255 26.687414187057982 H 0.0 **** 0.06
19270 H 17.837720017786253 102.84374600205565 28.16287949591853 H 0.0 **** 0.06
19271 C 84.2171522929277 92.30169820412428 96.1544947311196 C 0.0 **** -0.24
19272 H 84.41011304090482 91.82052707184492 95.19630573002982 H 0.0 **** 0.06
19273 H 83.1546743117395 92.23107230685034 96.38890097818256 H 0.0 **** 0.06
19274 H 84.50748606353116 93.35097420307473 96.09925052163868 H 0.0 **** 0.06
19275 H 84.7954210496248 91.80560091677566 96.93301729533584 H 0.0 **** 0.06
19276 C 87.13764724611886 49.00970200533453 15.845232147505811 C 0.0 **** -0.24
19277 H 86.71449417527269 48.471193600905366 14.997029973141778 H 0.0 **** 0.06
19278 H 86.4230016396952 49.75507343718744 16.195259079954027 H 0.0 **** 0.06
19279 H 88.05869594417386 49.50465706670448 15.537673202221626 H 0.0 **** 0.06
19280 H 87.35424670761215 48.3074196046965 16.650093517884372 H 0.0 **** 0.06
19281 C 27.130632352468638 84.84410836017105 8.981343147218922 C 0.0 **** -0.24
19282 H 26.287084937378296 85.39871272433058 8.568704617495797 H 0.0 **** 0.06
19283 H 27.61471597915181 84.27631906078102 8.185411496535352 H 0.0 **** 0.06
19284 H 26.77405708326438 84.15992972754464 9.750977074290432 H 0.0 **** 0.06
19285 H 27.845139723148577 85.54161118169912 9.417175347253902 H 0.0 **** 0.06
19286 C 52.823834621915296 92.24466031032945 69.3021938689684 C 0.0 **** -0.24
19287 H 52.50866387453061 92.21625408114485 70.34451154638481 H 0.0 **** 0.06
19288 H 52.16622886754831 92.90973875204935 68.7412855566431 H 0.0 **** 0.06
19289 H 52.77160699334814 91.24027248342823 68.87976376392191 H 0.0 **** 0.06
19290 H 53.84869012783818 92.6111840019548 69.24196665788241 H 0.0 **** 0.06
19291 C 20.573314109552285 100.16120183068072 74.65625022790637 C 0.0 **** -0.24
19292 H 19.677349014412925 100.63414381041906 75.058725294867 H 0.0 **** 0.06
19293 H 21.419609035138535 100.3689369000337 75.31215711618695 H 0.0 **** 0.06
19294 H 20.777591164727028 100.55674352355766 73.662044358098 H 0.0 **** 0.06
19295 H 20.418001365765036 99.08445551110209 74.59412930122714 H 0.0 **** 0.06
19296 C 14.88156873104083 21.222055069521016 66.28145142572941 C 0.0 **** -0.24
19297 H 14.77936173055916 22.26415922397021 65.9810628113882 H 0.0 **** 0.06
19298 H 15.895932698208156 21.045105199858163 66.63854413125256 H 0.0 **** 0.06
19299 H 14.67967520539679 20.576044209664502 65.42664282754237 H 0.0 **** 0.06
19300 H 14.171839928783214 21.001586821489184 67.07857656765901 H 0.0 **** 0.06
19301 C 90.75013599804697 4.524107276192751 27.06748877413642 C 0.0 **** -0.24
19302 H 90.73295262575397 5.545311141253308 26.68786384408631 H 0.0 **** 0.06
19303 H 91.23780850930422 3.8746778137523847 26.339855161882483 H 0.0 **** 0.06
19304 H 89.72917115211277 4.181486855419905 27.23329504526194 H 0.0 **** 0.06
19305 H 91.30176437461083 4.495340674877411 28.007707578670505 H 0.0 **** 0.06
19306 C 79.05794988188393 58.46093801467375 77.66739522049437 C 0.0 **** -0.24
19307 H 78.991822396504 58.977970065297285 76.71088768229394 H 0.0 **** 0.06
19308 H 79.79033872348816 57.657576487771195 77.59683669046741 H 0.0 **** 0.06
19309 H 78.08333613726779 58.044012250265745 77.92343573592723 H 0.0 **** 0.06
19310 H 79.36515913703363 59.16606470887268 78.44046805456914 H 0.0 **** 0.06
19311 C 71.25689715963102 8.786490824157966 45.76210286018724 C 0.0 **** -0.24
19312 H 71.04149295595204 9.850481202192526 45.858150848301705 H 0.0 **** 0.06
19313 H 70.37010725681921 8.211328002398062 46.028527583056075 H 0.0 **** 0.06
19314 H 72.07678372066113 8.521100409179695 46.430060734773946 H 0.0 **** 0.06
19315 H 71.5405728689251 8.565067793194885 44.73369019187683 H 0.0 **** 0.06
19316 C 84.84080170150126 37.377391528539526 90.63228267065682 C 0.0 **** -0.24
19317 H 84.81573676948092 38.36471883739727 90.17295796884389 H 0.0 **** 0.06
19318 H 84.01859781684156 37.28636485715217 91.34262603035063 H 0.0 **** 0.06
19319 H 85.78860150383073 37.242354483826816 91.15322053130654 H 0.0 **** 0.06
19320 H 84.73926596137836 36.615173306512524 89.86004463487791 H 0.0 **** 0.06
19321 C 50.44445278353689 16.205550018178513 78.94118565684721 C 0.0 **** -0.24
19322 H 49.60755433239723 15.881789553890599 79.56097266787314 H 0.0 **** 0.06
19323 H 51.33466018415254 16.31050064245474 79.56159269785113 H 0.0 **** 0.06
19324 H 50.205850203418834 17.164363747607993 78.48115656896053 H 0.0 **** 0.06
19325 H 50.628839464664566 15.465130751189449 78.16325792441224 H 0.0 **** 0.06
19326 C 62.2129092689042 31.593382264298896 96.54892069228856 C 0.0 **** -0.24
19327 H 62.650067827635866 31.469294887920924 97.53986340907369 H 0.0 **** 0.06
19328 H 61.21021967614864 32.011151328717716 96.64438465327544 H 0.0 **** 0.06
19329 H 62.15769953170033 30.62488929313146 96.05269399053702 H 0.0 **** 0.06
19330 H 62.83264594335837 32.268562007885926 95.96043075403901 H 0.0 **** 0.06
19331 C 10.105198399609506 10.518159314546836 81.1614618995253 C 0.0 **** -0.24
19332 H 10.517926569041848 9.99693954674629 80.29766264815231 H 0.0 **** 0.06
19333 H 10.608249456991516 10.177127389558677 82.0665655484969 H 0.0 **** 0.06
19334 H 9.03799695705787 10.307450327369764 81.23580954803708 H 0.0 **** 0.06
19335 H 10.256246953639277 11.591294256120477 81.04301156607457 H 0.0 **** 0.06
19336 C 88.60428330471944 56.84029685561893 42.61177724290506 C 0.0 **** -0.24
19337 H 87.90739530341136 57.54117911828689 42.15125586137645 H 0.0 **** 0.06
19338 H 88.9967938305879 57.270143888694804 43.53360031246249 H 0.0 **** 0.06
19339 H 89.426139924411 56.64066270005219 41.92500320803048 H 0.0 **** 0.06
19340 H 88.08455973730904 55.908310198540136 42.836839633698915 H 0.0 **** 0.06
19341 C 19.22971683810289 5.309505922529027 36.80977992778605 C 0.0 **** -0.24
19342 H 18.600142399054505 4.479238274247587 36.487945421886636 H 0.0 **** 0.06
19343 H 20.204838370651146 4.928976462069038 37.11405622594032 H 0.0 **** 0.06
19344 H 18.757788364921282 5.818473972078186 37.65009163291356 H 0.0 **** 0.06
19345 H 19.354414793220826 6.011056855683645 35.9841822643226 H 0.0 **** 0.06
19346 C 84.36292591963331 107.66659529127284 28.80201082145036 C 0.0 **** -0.24
19347 H 84.49744411507982 107.26734708091843 29.80816515394553 H 0.0 **** 0.06
19348 H 83.40768160026465 107.32522265058543 28.40074178466005 H 0.0 **** 0.06
19349 H 85.1722602841345 107.31487402923304 28.161502573100513 H 0.0 **** 0.06
19350 H 84.37430156451131 108.75593108889856 28.838614748343552 H 0.0 **** 0.06
19351 C 1.0508388069391685 21.992108796625132 21.648473639438507 C 0.0 **** -0.24
19352 H 0.07183815537223381 22.01452945810928 22.128711959362022 H 0.0 **** 0.06
19353 H 1.5934648705004975 22.907191603934848 21.88770196200366 H 0.0 **** 0.06
19354 H 0.9233645525141583 21.915393399865195 20.569236069152623 H 0.0 **** 0.06
19355 H 1.612417261610176 21.130836807077117 22.01039204623116 H 0.0 **** 0.06
19356 C 38.632461209737954 62.38028187408486 48.3445172056318 C 0.0 **** -0.24
19357 H 39.026587887435824 63.06663310065892 49.09411102741677 H 0.0 **** 0.06
19358 H 39.28739684339479 62.37910688685082 47.47284771580428 H 0.0 **** 0.06
19359 H 37.63371543526972 62.701129829123886 48.04901732047455 H 0.0 **** 0.06
19360 H 38.582039198182144 61.37505842835151 48.76268244262701 H 0.0 **** 0.06
19361 C 76.57796565274899 44.87247127751567 72.94690617263134 C 0.0 **** -0.24
19362 H 75.69281036209681 45.03477373462351 73.56161157819741 H 0.0 **** 0.06
19363 H 77.02261836260891 45.83512045242696 72.69146274683197 H 0.0 **** 0.06
19364 H 76.29508164979937 44.3490866022687 72.03386628908493 H 0.0 **** 0.06
19365 H 77.30007123732295 44.27437095740629 73.50126903390225 H 0.0 **** 0.06
19366 C 46.12804177711284 99.29572112998157 33.746285811428834 C 0.0 **** -0.24
19367 H 47.072333148519384 99.20293757419282 34.284093231704674 H 0.0 **** 0.06
19368 H 45.83145475554837 100.3443859141168 33.711313246949715 H 0.0 **** 0.06
19369 H 45.36049382528683 98.71673287066481 34.259206308127546 H 0.0 **** 0.06
19370 H 46.251526581345175 98.91841943372368 32.73128893907304 H 0.0 **** 0.06
19371 C 41.10664964067783 4.770059372611328 64.9857134757209 C 0.0 **** -0.24
19372 H 40.80040941381043 5.696097051303354 64.49987004807792 H 0.0 **** 0.06
19373 H 41.67381545318537 5.00307356209278 65.8869582072171 H 0.0 **** 0.06
19374 H 41.72843130916232 4.190603364955621 64.3038667310633 H 0.0 **** 0.06
19375 H 40.22174182387019 4.190749954801859 65.25112172024797 H 0.0 **** 0.06
19376 C 96.49554167306798 11.747197663842854 52.937116825472785 C 0.0 **** -0.24
19377 H 95.54476121639902 11.836937586665869 53.462713639213995 H 0.0 **** 0.06
19378 H 96.31747756956759 11.75676595993734 51.86238928281442 H 0.0 **** 0.06
19379 H 96.97782790992358 10.81132889305806 53.218110288851534 H 0.0 **** 0.06
19380 H 97.13932130857336 12.58439749532792 53.20662183309538 H 0.0 **** 0.06
19381 C 3.015163109301696 52.64635108227924 4.716964895298574 C 0.0 **** -0.24
19382 H 2.6874427122405535 52.77961007462591 3.685341330418666 H 0.0 **** 0.06
19383 H 3.822890440547539 51.913807377457715 4.7495088845208215 H 0.0 **** 0.06
19384 H 2.178955350711263 52.29240727510256 5.3192456067165494 H 0.0 **** 0.06
19385 H 3.3696927408253288 53.598572512980354 5.110571019322819 H 0.0 **** 0.06
19386 C 62.06990442206347 41.48171476261422 100.06154903920732 C 0.0 **** -0.24
19387 H 61.52771976258748 41.732438045424885 99.14974732413432 H 0.0 **** 0.06
19388 H 62.159970178585425 40.398284081623444 100.14357268756784 H 0.0 **** 0.06
19389 H 61.52909627754978 41.86867162594041 100.92471798365932 H 0.0 **** 0.06
19390 H 63.06404752585648 41.92765209298079 100.02629092665725 H 0.0 **** 0.06
19391 C 100.86217833964268 23.950348118537903 66.32365435848034 C 0.0 **** -0.24
19392 H 100.80663264532268 24.944956252434793 65.8807671419362 H 0.0 **** 0.06
19393 H 101.22680397490394 23.241431566131467 65.57979534177467 H 0.0 **** 0.06
19394 H 99.87014088786334 23.64828834119541 66.65969502116744 H 0.0 **** 0.06
19395 H 101.54376191868077 23.969793650929716 67.17355810951328 H 0.0 **** 0.06
19396 C 81.75256849894885 96.22816041362205 101.25636796476068 C 0.0 **** -0.24
19397 H 81.87823172396261 97.1825656695587 101.76866391892162 H 0.0 **** 0.06
19398 H 82.72706899306718 95.85410578410264 100.94309391048158 H 0.0 **** 0.06
19399 H 81.1182214588932 96.36739668025473 100.38062493333507 H 0.0 **** 0.06
19400 H 81.28731207047989 95.5118356854644 101.93206684251825 H 0.0 **** 0.06
19401 C 19.614428422925315 17.5223959018131 43.87048405434866 C 0.0 **** -0.24
19402 H 20.182722612847115 17.505079923655984 42.94141381035086 H 0.0 **** 0.06
19403 H 20.283839581016558 17.334657620033994 44.7095834153841 H 0.0 **** 0.06
19404 H 18.843963192175146 16.750682984027023 43.84029578895024 H 0.0 **** 0.06
19405 H 19.144496187589535 18.49897711334694 43.991490739776246 H 0.0 **** 0.06
19406 C 105.07928678895746 84.13278931274613 53.818997460429095 C 0.0 **** -0.24
19407 H 105.21287785029315 83.50750176948162 54.701168983333744 H 0.0 **** 0.06
19408 H 104.02153803950699 84.17185345688489 53.55861637396592 H 0.0 **** 0.06
19409 H 105.64295915677025 83.7127600173365 52.986925045455244 H 0.0 **** 0.06
19410 H 105.4393359234968 85.14007979696322 54.0301354968519 H 0.0 **** 0.06
19411 C 38.52261963905014 93.08042403579435 81.61188220834504 C 0.0 **** -0.24
19412 H 38.01227114431769 92.1176896014648 81.58839726191434 H 0.0 **** 0.06
19413 H 37.84872410147318 93.85760380379915 81.25125754334385 H 0.0 **** 0.06
19414 H 39.404648144581344 93.03949605314881 80.97133366184431 H 0.0 **** 0.06
19415 H 38.82612023701759 93.30575317291374 82.63337514021093 H 0.0 **** 0.06
19416 C 44.91013865184672 33.48519709120748 0.24571393252854534 C 0.0 **** -0.24
19417 H 45.96870040244056 33.320772910226566 0.448241624391585 H 0.0 **** 0.06
19418 H 44.473510105042664 32.57356605822309 -0.16453014090795648 H 0.0 **** 0.06
19419 H 44.800537134259656 34.29656739869745 -0.47340249134316537 H 0.0 **** 0.06
19420 H 44.39996482090763 33.74793584041407 1.1718006916999855 H 0.0 **** 0.06
19421 C 63.426714906743996 76.81632010175932 25.6650613072118 C 0.0 **** -0.24
19422 H 64.1825151939587 77.52224369920933 25.319437844163133 H 0.0 **** 0.06
19423 H 62.505277641459 76.96721536204005 25.101956735584537 H 0.0 **** 0.06
19424 H 63.23537863820155 76.97951670380164 26.726135802452973 H 0.0 **** 0.06
19425 H 63.78367299292648 75.79752556410993 25.512001250203014 H 0.0 **** 0.06
19426 C 99.17054164105164 87.92746709805964 84.16767519432864 C 0.0 **** -0.24
19427 H 98.78942710742666 88.93214392169943 83.98185545133411 H 0.0 **** 0.06
19428 H 99.09425182221867 87.70109217393313 85.23151494972534 H 0.0 **** 0.06
19429 H 100.21344556545085 87.87105094765417 83.8567775851864 H 0.0 **** 0.06
19430 H 98.58334426770702 87.20615950751905 83.59921733067887 H 0.0 **** 0.06
19431 C 34.7310463948796 70.5565374773874 84.50063622538624 C 0.0 **** -0.24
19432 H 34.5772539867431 69.64561054047428 83.92130057895963 H 0.0 **** 0.06
19433 H 35.79936675042674 70.71822983500012 84.64513862268024 H 0.0 **** 0.06
19434 H 34.24385340220317 70.45690637008006 85.47025229824999 H 0.0 **** 0.06
19435 H 34.30442115895178 71.40447026854359 83.96506213314984 H 0.0 **** 0.06
19436 C 28.30056271348493 109.46416136082897 57.64589235504443 C 0.0 **** -0.24
19437 H 29.06132461658124 110.14600656496114 57.26613300303918 H 0.0 **** 0.06
19438 H 28.052000449280364 108.73226451113473 56.87690498911482 H 0.0 **** 0.06
19439 H 27.407211562488158 110.02920664593705 57.911810155642435 H 0.0 **** 0.06
19440 H 28.681294934854442 108.94986783688748 58.527566225207266 H 0.0 **** 0.06
19441 C 62.13517447400284 39.535172756718794 62.29554020457027 C 0.0 **** -0.24
19442 H 62.9250947047949 38.90435576394134 62.70357169481889 H 0.0 **** 0.06
19443 H 61.583964422008876 38.98080334075371 61.53557784294668 H 0.0 **** 0.06
19444 H 62.57640258876643 40.42604469368922 61.84777384696014 H 0.0 **** 0.06
19445 H 61.455236180441204 39.829487228490734 63.09523743355521 H 0.0 **** 0.06
19446 C 47.95275335704105 98.02504195367635 39.61238562515689 C 0.0 **** -0.24
19447 H 47.60005683757947 99.05250121354189 39.5224836305419 H 0.0 **** 0.06
19448 H 47.145194265453426 97.39449136143429 39.98478193583003 H 0.0 **** 0.06
19449 H 48.79188675453594 97.98880918611968 40.306316460329526 H 0.0 **** 0.06
19450 H 48.274186719098566 97.66531686616622 38.63496085267445 H 0.0 **** 0.06
19451 C 52.788864027933656 67.038074195323 0.09066675819840952 C 0.0 **** -0.24
19452 H 53.018691993521884 67.095462362489 -0.9737483328831047 H 0.0 **** 0.06
19453 H 53.71650490552678 67.04060024187552 0.6630606399939012 H 0.0 **** 0.06
19454 H 52.23793583001919 66.11951239115736 0.29400905768389407 H 0.0 **** 0.06
19455 H 52.18228991512776 67.89687020634892 0.3769008463449808 H 0.0 **** 0.06
19456 C 96.42182152048049 4.91577671223385 48.23079569224096 C 0.0 **** -0.24
19457 H 96.86593681361359 5.6267150359491325 48.92740823155356 H 0.0 **** 0.06
19458 H 95.4636234330098 5.300967868512856 47.880587206721174 H 0.0 **** 0.06
19459 H 96.26818003756512 3.9605152961967462 48.733323981801625 H 0.0 **** 0.06
19460 H 97.0891103424853 4.7765297830170255 47.380386002527544 H 0.0 **** 0.06
19461 C 68.29210392788866 46.00305424122604 28.366911876222275 C 0.0 **** -0.24
19462 H 69.25116799427997 46.44859751788066 28.100661820380367 H 0.0 **** 0.06
19463 H 67.67493995856168 45.91149989680427 27.473194267662024 H 0.0 **** 0.06
19464 H 67.78712518919625 46.63724404872842 29.095087995056815 H 0.0 **** 0.06
19465 H 68.45839925490908 45.01507218184772 28.79708635483604 H 0.0 **** 0.06
19466 C 102.60676040856296 93.40552060634502 38.77341923850227 C 0.0 **** -0.24
19467 H 102.22091573610109 93.27586814625192 37.7627472779221 H 0.0 **** 0.06
19468 H 102.13761306131279 92.67893114846981 39.43734189541925 H 0.0 **** 0.06
19469 H 102.38284091200903 94.4135047571848 39.12155241073614 H 0.0 **** 0.06
19470 H 103.68624665213488 93.25268498887544 38.772724063767214 H 0.0 **** 0.06
19471 C 63.08511552207568 67.62246834157872 33.79536699381357 C 0.0 **** -0.24
19472 H 62.26580186175565 67.26370403477222 33.17222893585956 H 0.0 **** 0.06
19473 H 63.883579561301005 68.00676909831515 33.160271833926366 H 0.0 **** 0.06
19474 H 63.46650407570172 66.80000588593595 34.40101956987207 H 0.0 **** 0.06
19475 H 62.72403578756783 68.4170057935311 34.447896198056704 H 0.0 **** 0.06
19476 C 30.019963445731605 75.80111839505192 9.271680236427363 C 0.0 **** -0.24
19477 H 30.308546485292055 76.8365991473878 9.089005084237861 H 0.0 **** 0.06
19478 H 29.648328177029896 75.3591541193759 8.34679128299068 H 0.0 **** 0.06
19479 H 29.238171395443516 75.77123109621888 10.030421730666186 H 0.0 **** 0.06
19480 H 30.886435205660064 75.23900769672953 9.620288888455223 H 0.0 **** 0.06
19481 C 60.343034184357975 58.7271214890726 44.89275643206406 C 0.0 **** -0.24
19482 H 59.50966067723647 58.748592071392466 44.19030546654929 H 0.0 **** 0.06
19483 H 60.23840213707496 59.54517657165765 45.60583340924248 H 0.0 **** 0.06
19484 H 61.28055893267697 58.836908207825346 44.34794092132327 H 0.0 **** 0.06
19485 H 60.34258721443621 57.7768523419256 45.42647271252309 H 0.0 **** 0.06
19486 C 61.543443491071656 15.999268466918409 58.868686358717355 C 0.0 **** -0.24
19487 H 61.597439839153196 16.907307441330886 58.26882695364128 H 0.0 **** 0.06
19488 H 61.16169271715319 15.18200110982724 58.2555711825903 H 0.0 **** 0.06
19489 H 60.87665178420332 16.161205498004904 59.71545606583385 H 0.0 **** 0.06
19490 H 62.53827847821185 15.744774287326663 59.23357643514157 H 0.0 **** 0.06
19491 C 41.928195593267446 36.49898074028221 48.874351431438036 C 0.0 **** -0.24
19492 H 42.624224816029994 35.661180603222334 48.920644018436526 H 0.0 **** 0.06
19493 H 41.38144477207453 36.569334799389964 49.81461605998926 H 0.0 **** 0.06
19494 H 41.2255935410883 36.34165354872485 48.05503993890224 H 0.0 **** 0.06
19495 H 42.482553002074724 37.42285480641701 48.70533849913664 H 0.0 **** 0.06
19496 C 32.24388151137856 40.23554598299945 1.874591676989894 C 0.0 **** -0.24
19497 H 32.40645054148942 39.65595612701616 2.7837922522946883 H 0.0 **** 0.06
19498 H 33.19628518123989 40.38705313795792 1.3660765944514424 H 0.0 **** 0.06
19499 H 31.81241989136464 41.20294166481173 2.1336963848820005 H 0.0 **** 0.06
19500 H 31.561704297424683 39.696645469637176 1.2178100017436009 H 0.0 **** 0.06
19501 C 89.63382634351088 21.576794304332395 2.4271043209807672 C 0.0 **** -0.24
19502 H 88.57198639232305 21.55529848378802 2.1810502619463774 H 0.0 **** 0.06
19503 H 89.78965864630253 21.112430803092877 3.401523445192783 H 0.0 **** 0.06
19504 H 89.97738814941053 22.610417284900606 2.4572790139479173 H 0.0 **** 0.06
19505 H 90.1933376787688 21.028574269239215 1.6689898162065555 H 0.0 **** 0.06
19506 C 56.352977867795175 8.281519102924344 8.599233106341453 C 0.0 **** -0.24
19507 H 56.48303798483357 9.20285983117112 9.166458221586737 H 0.0 **** 0.06
19508 H 56.71344568881818 7.437956869990934 9.188709557884144 H 0.0 **** 0.06
19509 H 56.92006538866053 8.343085601269399 7.670508156745923 H 0.0 **** 0.06
19510 H 55.29712395836589 8.141119684192043 8.370370271049316 H 0.0 **** 0.06
19511 C 87.6406972180821 100.41328456729983 106.64720047457959 C 0.0 **** -0.24
19512 H 87.86086324600609 100.20224868912739 105.60045908391645 H 0.0 **** 0.06
19513 H 88.19148628236528 99.71942525101542 107.28176044506564 H 0.0 **** 0.06
19514 H 86.57116527757591 100.29629615986337 106.82298696955152 H 0.0 **** 0.06
19515 H 87.93764982518647 101.4354643483212 106.88038997125288 H 0.0 **** 0.06
19516 C 98.96258470513115 21.35864578936173 29.508422709810418 C 0.0 **** -0.24
19517 H 99.25755732724622 22.192473336863287 30.144777532909302 H 0.0 **** 0.06
19518 H 99.85162891714492 20.902741351881645 29.071416621664696 H 0.0 **** 0.06
19519 H 98.31196152974809 21.72163196476299 28.712411226140887 H 0.0 **** 0.06
19520 H 98.42944935370502 20.61803844950873 30.104167767686192 H 0.0 **** 0.06
19521 C 104.33836949451086 63.88598037571086 74.34269441930452 C 0.0 **** -0.24
19522 H 104.05899776869931 64.41068745668923 75.25597948830217 H 0.0 **** 0.06
19523 H 104.48399565508859 62.82799167188011 74.56125714823239 H 0.0 **** 0.06
19524 H 105.26492651336373 64.30731150700763 73.95077353802463 H 0.0 **** 0.06
19525 H 103.54689614466346 63.99963032843675 73.60220043880635 H 0.0 **** 0.06
19526 C 43.77470722568353 29.22950578798398 45.307260398864 C 0.0 **** -0.24
19527 H 43.13916010653156 28.533621566114874 44.758385360210866 H 0.0 **** 0.06
19528 H 44.76494232913785 29.252996174162973 44.85226658006172 H 0.0 **** 0.06
19529 H 43.857453521237915 28.904448477915253 46.34419217537402 H 0.0 **** 0.06
19530 H 43.33512602731713 30.22689811100446 45.273574958979054 H 0.0 **** 0.06
19531 C 10.173936319546973 38.389246018034214 57.27390585741418 C 0.0 **** -0.24
19532 H 11.197229039138673 38.52754351381952 57.62296393873215 H 0.0 **** 0.06
19533 H 10.187153644006418 37.92654084572422 56.28664297414317 H 0.0 **** 0.06
19534 H 9.675688203675413 39.356920714785815 57.21518424605868 H 0.0 **** 0.06
19535 H 9.637362691279849 37.74452154577364 57.97067187009616 H 0.0 **** 0.06
19536 C 79.36276688814077 56.76586664211544 89.35714696657777 C 0.0 **** -0.24
19537 H 78.62520865390739 56.90685573110295 90.14733723995673 H 0.0 **** 0.06
19538 H 79.08904999534172 55.897898019660914 88.75585389963034 H 0.0 **** 0.06
19539 H 80.34546602010734 56.604494021049334 89.80191668025154 H 0.0 **** 0.06
19540 H 79.3918889208418 57.65294713294264 88.72452161507458 H 0.0 **** 0.06
19541 C 55.234333859659046 43.55367160050247 105.22468999370369 C 0.0 **** -0.24
19542 H 55.642554507346404 43.67641960531877 104.22176949104141 H 0.0 **** 0.06
19543 H 54.22519601227697 43.96536657983522 105.25964467276577 H 0.0 **** 0.06
19544 H 55.866390241938745 44.078470598835466 105.94101636432265 H 0.0 **** 0.06
19545 H 55.20248119659678 42.493233638733074 105.47608311416889 H 0.0 **** 0.06
19546 C 98.05243804030818 92.91492644882084 78.26526499918305 C 0.0 **** -0.24
19547 H 97.67430708031162 93.03301759248612 79.28099735454236 H 0.0 **** 0.06
19548 H 97.5766396708035 93.64868420792811 77.61352021218886 H 0.0 **** 0.06
19549 H 97.82450292404775 91.91054755856987 77.9081286552098 H 0.0 **** 0.06
19550 H 99.1311464669426 93.06765546301096 78.25843461729869 H 0.0 **** 0.06
19551 C 102.57919191184732 0.013251521570808222 47.735848200153555 C 0.0 **** -0.24
19552 H 101.88183750800411 0.2981682899822715 46.94837567572975 H 0.0 **** 0.06
19553 H 103.19375679235162 -0.8187354000174167 47.39274839402509 H 0.0 **** 0.06
19554 H 102.02144470066611 -0.2885983580090965 48.623290318361285 H 0.0 **** 0.06
19555 H 103.21840881081744 0.8609614266280659 47.9798693817354 H 0.0 **** 0.06
19556 C 10.454463475071265 104.8392434265145 42.05359770049864 C 0.0 **** -0.24
19557 H 10.190456055436954 105.10506486012784 41.02999241479938 H 0.0 **** 0.06
19558 H 11.27037093615354 104.11644804793093 42.04165632735106 H 0.0 **** 0.06
19559 H 9.588299096854001 104.40267099907302 42.55023387133008 H 0.0 **** 0.06
19560 H 10.76867804365105 105.73409462046668 42.590692915735076 H 0.0 **** 0.06
19561 C 30.573986981553695 99.97827860766893 29.5116565183245 C 0.0 **** -0.24
19562 H 29.69151898266977 100.15184610966153 28.894887238796443 H 0.0 **** 0.06
19563 H 30.571906720159298 98.94750447744764 29.866240927399843 H 0.0 **** 0.06
19564 H 30.560176521719207 100.65670542681974 30.364390374351288 H 0.0 **** 0.06
19565 H 31.471687304466634 100.15704847554844 28.919218984257668 H 0.0 **** 0.06
19566 C 24.87927752089166 78.59930012185376 29.852542363863108 C 0.0 **** -0.24
19567 H 24.66311634976393 77.7624164135919 30.516765028516943 H 0.0 **** 0.06
19568 H 24.410639497642787 78.4235572725155 28.884162999119155 H 0.0 **** 0.06
19569 H 25.95679750190898 78.69131894618923 29.723915556179293 H 0.0 **** 0.06
19570 H 24.484502589155273 79.51830144568422 30.286421471415366 H 0.0 **** 0.06
19571 C 36.65044783278512 29.752910295928324 15.582114717851894 C 0.0 **** -0.24
19572 H 37.01817694140627 29.130924747334944 14.765770408003732 H 0.0 **** 0.06
19573 H 37.38466171040753 30.52826153448781 15.805789212413401 H 0.0 **** 0.06
19574 H 36.49322386490405 29.13509428459261 16.46669697633763 H 0.0 **** 0.06
19575 H 35.70893474963373 30.21653870306359 15.289985504115364 H 0.0 **** 0.06
19576 C 44.28687357429729 103.44176404273631 95.93581334483109 C 0.0 **** -0.24
19577 H 43.6955585025195 103.31807907408874 95.02822683409538 H 0.0 **** 0.06
19578 H 44.805769813778284 102.51031106619024 96.1594552799404 H 0.0 **** 0.06
19579 H 43.628655850488684 103.70110214681486 96.76537584198952 H 0.0 **** 0.06
19580 H 45.015615941185814 104.23853904657416 95.7871194179742 H 0.0 **** 0.06
19581 C 105.88428699803379 88.31790619552902 7.599711610112365 C 0.0 **** -0.24
19582 H 105.00078590889395 88.80078723284765 7.183295456225267 H 0.0 **** 0.06
19583 H 105.63655477161832 87.29823520066145 7.8955571175337695 H 0.0 **** 0.06
19584 H 106.22659703205969 88.87594867119788 8.471886607905901 H 0.0 **** 0.06
19585 H 106.67533488509139 88.29655758671055 6.848797960829984 H 0.0 **** 0.06
19586 C 110.64471695813302 5.573553617584029 12.028279454287613 C 0.0 **** -0.24
19587 H 110.17518882485294 5.542338372454706 13.011265543563809 H 0.0 **** 0.06
19588 H 110.26260662739327 6.427548162089888 11.469175049603137 H 0.0 **** 0.06
19589 H 110.41768857214917 4.654186572252986 11.488837091036146 H 0.0 **** 0.06
19590 H 111.72486082119471 5.669004103843017 12.145075173108353 H 0.0 **** 0.06
19591 C 70.28215612017735 46.54159317359472 19.187449026042884 C 0.0 **** -0.24
19592 H 69.89406722623238 46.61243697145622 18.171464338102794 H 0.0 **** 0.06
19593 H 71.35981030784083 46.37899899139501 19.154962842454665 H 0.0 **** 0.06
19594 H 69.80417579957074 45.70739699959705 19.700770830932925 H 0.0 **** 0.06
19595 H 70.06933065628726 47.46696899955103 19.722229924601663 H 0.0 **** 0.06
19596 C 18.001214255091803 60.46977937835048 34.899971378066155 C 0.0 **** -0.24
19597 H 17.49109424036861 59.65628919960234 35.416297878971406 H 0.0 **** 0.06
19598 H 18.01152807798762 60.27025361736274 33.828827697007256 H 0.0 **** 0.06
19599 H 19.025735771643564 60.546092021730985 35.266192416428595 H 0.0 **** 0.06
19600 H 17.47658749876305 61.40600117357597 35.09074939145958 H 0.0 **** 0.06
19601 C 66.20540060476625 34.53328759365161 85.0576590038801 C 0.0 **** -0.24
19602 H 65.28630938541126 34.56193371030733 85.6430558514444 H 0.0 **** 0.06
19603 H 66.6142222596797 35.54010098321962 84.97601738929977 H 0.0 **** 0.06
19604 H 65.98874218217954 34.146562973926564 84.0613749192503 H 0.0 **** 0.06
19605 H 66.92953330869561 33.88415109988645 85.55002814885901 H 0.0 **** 0.06
19606 C 98.37827111561234 55.39465878366483 59.077064762420136 C 0.0 **** -0.24
19607 H 98.82570100528841 54.808295033969685 59.87929026218201 H 0.0 **** 0.06
19608 H 99.00122569155306 55.32570837868701 58.185005798814316 H 0.0 **** 0.06
19609 H 98.30324336536444 56.43703956573577 59.38893483373259 H 0.0 **** 0.06
19610 H 97.38253565440755 55.009519851346035 58.856491317601 H 0.0 **** 0.06
19611 C 3.411260239775231 48.01122380905438 52.88151166256215 C 0.0 **** -0.24
19612 H 3.5901319584047258 48.70066099886838 52.05657167177576 H 0.0 **** 0.06
19613 H 4.350877171092947 47.809956353200064 53.396583691313154 H 0.0 **** 0.06
19614 H 3.003386616215579 47.07839950843317 52.49184940362482 H 0.0 **** 0.06
19615 H 2.7016677416215487 48.455046127968195 53.579235768620435 H 0.0 **** 0.06
19616 C 26.609987925461525 88.29143735094148 10.920430592022058 C 0.0 **** -0.24
19617 H 27.31624131818461 87.49789515430354 10.676624006234874 H 0.0 **** 0.06
19618 H 25.8323825034483 87.89773869541295 11.575777798223157 H 0.0 **** 0.06
19619 H 26.15593203570836 88.668458746223 10.003851700346104 H 0.0 **** 0.06
19620 H 27.1348222409176 89.10247592785099 11.4254604023115 H 0.0 **** 0.06
19621 C 65.20289038093318 44.05511979454906 15.78708528651839 C 0.0 **** -0.24
19622 H 64.39043456267135 44.00682192059844 15.062772828116124 H 0.0 **** 0.06
19623 H 65.3447815750012 43.074358581863684 16.24118116942026 H 0.0 **** 0.06
19624 H 64.95628398335444 44.78215318537497 16.561786221102807 H 0.0 **** 0.06
19625 H 66.1208181869988 44.35865396047753 15.28299073029416 H 0.0 **** 0.06
19626 C 68.29874949614828 99.59955939529802 49.253580887269145 C 0.0 **** -0.24
19627 H 68.37019955839429 100.28805998280009 50.096002751365035 H 0.0 **** 0.06
19628 H 69.04921275375082 98.81673411743023 49.35978434408417 H 0.0 **** 0.06
19629 H 68.46922489433922 100.14357500099763 48.32531270378335 H 0.0 **** 0.06
19630 H 67.30561181911114 99.15064336820392 49.23542350217133 H 0.0 **** 0.06
19631 C 85.38009329919359 66.1658512432843 96.24590204961085 C 0.0 **** -0.24
19632 H 85.14102697892417 66.81306240954785 95.40140528334793 H 0.0 **** 0.06
19633 H 86.34384246239753 65.68648979218932 96.07532696069198 H 0.0 **** 0.06
19634 H 84.60687939968801 65.40277828669485 96.34787156835772 H 0.0 **** 0.06
19635 H 85.4252060837432 66.76089193594024 97.15847269472168 H 0.0 **** 0.06
19636 C 46.02082876316232 44.391058990994736 2.327434284370298 C 0.0 **** -0.24
19637 H 46.3485801874747 45.41263338202822 2.520254161125905 H 0.0 **** 0.06
19638 H 44.95078816164629 44.310819045126806 2.5211929937994455 H 0.0 **** 0.06
19639 H 46.56198394915709 43.70660119392966 2.980272925761909 H 0.0 **** 0.06
19640 H 46.22165848621097 44.13573951648891 1.28732223155302 H 0.0 **** 0.06
19641 C 9.274963484562036 15.192864923568557 14.121453374920009 C 0.0 **** -0.24
19642 H 9.232820664597256 14.188764505777517 14.542408265569065 H 0.0 **** 0.06
19643 H 8.806061698661907 15.194866363446597 13.137972418730499 H 0.0 **** 0.06
19644 H 10.315653765425793 15.504022709068465 14.028753207553393 H 0.0 **** 0.06
19645 H 8.746651550632492 15.883656722407043 14.778162516263194 H 0.0 **** 0.06
19646 C 78.93458572435577 48.574079187144406 25.37970390976858 C 0.0 **** -0.24
19647 H 79.26196492024746 48.01244147698668 24.504553810367554 H 0.0 **** 0.06
19648 H 79.39790085756579 49.56073921273093 25.371652877135944 H 0.0 **** 0.06
19649 H 79.22839921719867 48.041248459491705 26.28361415861056 H 0.0 **** 0.06
19650 H 77.84938686371333 48.681548722363296 25.357443091079688 H 0.0 **** 0.06
19651 C 10.480037300820712 108.51075757750664 14.130579546818097 C 0.0 **** -0.24
19652 H 10.096486072473894 108.32392516561174 15.132856335021245 H 0.0 **** 0.06
19653 H 10.038061975359739 109.42653674388804 13.737505658203048 H 0.0 **** 0.06
19654 H 10.22111736391426 107.67473536088093 13.480751062703519 H 0.0 **** 0.06
19655 H 11.563741193016284 108.61839761733718 14.170142163788654 H 0.0 **** 0.06
19656 C 90.61264517150525 58.82910551466708 104.42484115789135 C 0.0 **** -0.24
19657 H 89.71956875704349 59.081828760760175 104.99617223449876 H 0.0 **** 0.06
19658 H 91.17856923274505 59.73661822808219 104.21468797752068 H 0.0 **** 0.06
19659 H 90.32141912715372 58.355231873381435 103.48755257708036 H 0.0 **** 0.06
19660 H 91.23109961136325 58.141191588425706 105.00284578855528 H 0.0 **** 0.06
19661 C 6.450702996121592 76.19197805369129 108.15922482376045 C 0.0 **** -0.24
19662 H 6.443499247699222 76.66344679930393 107.17620952000564 H 0.0 **** 0.06
19663 H 5.518329371250104 76.41723620177291 108.67700076441925 H 0.0 **** 0.06
19664 H 7.2908464279069705 76.57552917234085 108.7389767824218 H 0.0 **** 0.06
19665 H 6.550980865024769 75.11305930129176 108.0428573695429 H 0.0 **** 0.06
19666 C 34.54120858005763 32.850650978759674 110.76712734403188 C 0.0 **** -0.24
19667 H 34.242709471336354 32.30019279081097 109.87576898571155 H 0.0 **** 0.06
19668 H 35.59524723104056 32.663706853212865 110.97280465268005 H 0.0 **** 0.06
19669 H 33.94071638167469 32.521695470528584 111.61558132271279 H 0.0 **** 0.06
19670 H 34.38575597862351 33.91791732666491 110.60445637959765 H 0.0 **** 0.06
19671 C 46.276408527587385 5.638091789229875 88.7682335715555 C 0.0 **** -0.24
19672 H 45.70764102141 5.744847235328038 87.84396922436736 H 0.0 **** 0.06
19673 H 46.18353714476901 6.550238260377739 89.3589073606031 H 0.0 **** 0.06
19674 H 47.32499034317008 5.463853107227962 88.53107815812325 H 0.0 **** 0.06
19675 H 45.88670507835243 4.79523346235635 89.33862972383801 H 0.0 **** 0.06
19676 C 55.13791471194014 15.407821534387061 68.44504301693595 C 0.0 **** -0.24
19677 H 56.045632314509135 15.641325520569186 67.8891119549674 H 0.0 **** 0.06
19678 H 55.3055439852356 15.587792213015952 69.50604472211364 H 0.0 **** 0.06
19679 H 54.87748540380119 14.360690312872165 68.29036425716993 H 0.0 **** 0.06
19680 H 54.32347219332934 16.041344378924535 68.09169192719872 H 0.0 **** 0.06
19681 C 92.35130767050259 53.214963306533974 25.382112501717756 C 0.0 **** -0.24
19682 H 92.52889655909817 54.19337732119577 25.828724127135615 H 0.0 **** 0.06
19683 H 93.23868761295549 52.592948881370184 25.507733861869326 H 0.0 **** 0.06
19684 H 92.13674426362662 53.33319271826168 24.32009316466656 H 0.0 **** 0.06
19685 H 91.50212306044267 52.740341887107384 25.874816053603013 H 0.0 **** 0.06
19686 C 93.7254431996027 101.61748645596708 73.9992553803209 C 0.0 **** -0.24
19687 H 92.96020899324304 101.58774761698538 74.77576874784143 H 0.0 **** 0.06
19688 H 93.5960733345469 100.76803753362555 73.32929295583182 H 0.0 **** 0.06
19689 H 94.71204364849882 101.57047146431705 74.46074308294061 H 0.0 **** 0.06
19690 H 93.63236624061449 102.54527005131769 73.43373343563718 H 0.0 **** 0.06
19691 C 11.21681747060321 104.4923132652534 61.994341214370706 C 0.0 **** -0.24
19692 H 10.966119080242567 103.85001020183034 62.83835294787144 H 0.0 **** 0.06
19693 H 11.106929947116463 103.93217783155083 61.06521161605497 H 0.0 **** 0.06
19694 H 12.246572021712609 104.83575070081353 62.09269272577711 H 0.0 **** 0.06
19695 H 10.546786723950127 105.35281320601841 61.98120895503297 H 0.0 **** 0.06
19696 C 25.581206387394786 45.322484530464195 77.54644241950962 C 0.0 **** -0.24
19697 H 26.10949482020453 45.520045490750036 76.61380812803938 H 0.0 **** 0.06
19698 H 26.048096329723194 45.8864769533121 78.35454087297512 H 0.0 **** 0.06
19699 H 25.627098496792627 44.25793081977573 77.77271651574466 H 0.0 **** 0.06
19700 H 24.539423154175807 45.627730216421995 77.4453754709109 H 0.0 **** 0.06
19701 C 80.90994521191145 4.268423477236723 73.56028950086557 C 0.0 **** -0.24
19702 H 80.7807506667644 5.013295938549632 74.345018421329 H 0.0 **** 0.06
19703 H 81.55077465105293 3.4646689062130065 73.92568251737538 H 0.0 **** 0.06
19704 H 81.37209218113547 4.734511641832057 72.68978346504827 H 0.0 **** 0.06
19705 H 79.93820040016958 3.8610786847262943 73.28158542455026 H 0.0 **** 0.06
19706 C 57.504233660122594 80.7000465453117 2.4561252904339597 C 0.0 **** -0.24
19707 H 57.10892844870796 81.46456266725079 3.12552401935001 H 0.0 **** 0.06
19708 H 58.22444436680749 80.08321753605537 2.994343908861339 H 0.0 **** 0.06
19709 H 57.996272821140224 81.17915167931744 1.609259596985595 H 0.0 **** 0.06
19710 H 56.687193878092785 80.07553600538051 2.0962596766222106 H 0.0 **** 0.06
19711 C 15.765120844701997 71.31360268824149 15.525564168229806 C 0.0 **** -0.24
19712 H 16.27970019773919 71.17583476351089 14.57458529273012 H 0.0 **** 0.06
19713 H 14.840448827494313 70.73583509719572 15.523554173436168 H 0.0 **** 0.06
19714 H 15.534556463125256 72.36962415688173 15.66408285525398 H 0.0 **** 0.06
19715 H 16.405771823548463 70.97195088755771 16.3381262075211 H 0.0 **** 0.06
19716 C 102.56671230668854 40.71913480156399 27.847024896287877 C 0.0 **** -0.24
19717 H 102.11639799892356 39.84397163846988 28.31734849151617 H 0.0 **** 0.06
19718 H 103.43119057953288 40.411008929085945 27.25868017597415 H 0.0 **** 0.06
19719 H 102.88298562070226 41.422814903597306 28.617784453518723 H 0.0 **** 0.06
19720 H 101.83489943128241 41.19824196130165 27.196904938952997 H 0.0 **** 0.06
19721 C 74.44356129736389 2.9113647594970615 20.63868791023478 C 0.0 **** -0.24
19722 H 74.23204634341903 3.2842784831406107 19.63635536590465 H 0.0 **** 0.06
19723 H 74.97359957044813 3.6770219373509576 21.207181850560005 H 0.0 **** 0.06
19724 H 75.06202545833364 2.0164412957485354 20.570637905835127 H 0.0 **** 0.06
19725 H 73.50736004654027 2.6682750778465874 21.140842604946357 H 0.0 **** 0.06
19726 C 28.525043476178645 62.59796129067155 52.16033910663634 C 0.0 **** -0.24
19727 H 27.97347743513783 63.30886988970997 51.54508013608495 H 0.0 **** 0.06
19728 H 27.906806582209924 61.718924736739496 52.34378020130174 H 0.0 **** 0.06
19729 H 28.783244650777135 63.06484719872111 53.11146396369992 H 0.0 **** 0.06
19730 H 29.436737907974695 62.29923850354439 51.6427613814252 H 0.0 **** 0.06
19731 C 107.24830667613006 49.78318969491119 34.615011528297444 C 0.0 **** -0.24
19732 H 107.89678823477746 50.2795936011706 33.89387041465881 H 0.0 **** 0.06
19733 H 106.21062967332142 49.87354450004892 34.29390379550455 H 0.0 **** 0.06
19734 H 107.3679855535745 50.25047355695713 35.593191757754454 H 0.0 **** 0.06
19735 H 107.51808664692258 48.728834807508434 34.68076336513738 H 0.0 **** 0.06
19736 C 17.08367975567812 45.62344326382341 4.074456450765295 C 0.0 **** -0.24
19737 H 17.128479242638434 46.647302715459304 4.444967630707922 H 0.0 **** 0.06
19738 H 16.77523357098434 45.62927763575117 3.0284604171809786 H 0.0 **** 0.06
19739 H 16.36306740938889 45.055548046501805 4.6627060460366785 H 0.0 **** 0.06
19740 H 18.06709161757894 45.16223566246538 4.160301332743371 H 0.0 **** 0.06
19741 C 106.03644208687184 61.71895061991201 8.44484374116638 C 0.0 **** -0.24
19742 H 106.44571164422342 60.81540282756505 8.894959801555899 H 0.0 **** 0.06
19743 H 106.14040329679787 62.55073640366953 9.141177842809952 H 0.0 **** 0.06
19744 H 104.98104009005918 61.56501817669019 8.217537302947335 H 0.0 **** 0.06
19745 H 106.57652515759824 61.9433827332455 7.525484619992881 H 0.0 **** 0.06
19746 C 81.04230467344111 16.91181808444759 16.903129572903822 C 0.0 **** -0.24
19747 H 80.91069842126193 17.991462787956976 16.836048967010754 H 0.0 **** 0.06
19748 H 81.62608470919176 16.67068239151223 17.791284493091496 H 0.0 **** 0.06
19749 H 81.56545266970637 16.554019655573086 16.015915828785637 H 0.0 **** 0.06
19750 H 80.06608087818204 16.43072629323231 16.96725870452292 H 0.0 **** 0.06
19751 C 75.85888567588995 11.010974481195063 102.57317288623591 C 0.0 **** -0.24
19752 H 75.54538226024056 10.223372109212136 103.25832603736308 H 0.0 **** 0.06
19753 H 75.04357573638202 11.241012441925719 101.88785476226957 H 0.0 **** 0.06
19754 H 76.72716043401363 10.674880953564667 102.0063917849418 H 0.0 **** 0.06
19755 H 76.1191941993622 11.903739783559232 103.14238844662552 H 0.0 **** 0.06
19756 C 68.86350666527272 62.77221985574272 11.263256946694923 C 0.0 **** -0.24
19757 H 68.05478290851303 62.25888060840538 11.782643502664257 H 0.0 **** 0.06
19758 H 68.50702303259337 63.7364910645702 10.899869784238376 H 0.0 **** 0.06
19759 H 69.1961189290194 62.1656933294168 10.420475586552982 H 0.0 **** 0.06
19760 H 69.69522144358706 62.926890227651654 11.949429851354523 H 0.0 **** 0.06
19761 C 20.61001344613595 70.17698240895126 45.52898222087708 C 0.0 **** -0.24
19762 H 20.175488776946366 69.21328960584957 45.26448043744841 H 0.0 **** 0.06
19763 H 21.696136825588127 70.08762519518527 45.56635964938687 H 0.0 **** 0.06
19764 H 20.23697579118013 70.48850682648047 46.5044355296036 H 0.0 **** 0.06
19765 H 20.33227262407658 70.91851663501339 44.7795012065007 H 0.0 **** 0.06
19766 C 38.93284475895591 39.36403169765347 67.15792479563538 C 0.0 **** -0.24
19767 H 39.14731229222966 40.346511775201236 66.73724164530199 H 0.0 **** 0.06
19768 H 39.668337494912436 39.12959965560134 67.92871262720172 H 0.0 **** 0.06
19769 H 38.980757673626286 38.61289333247663 66.36935314183353 H 0.0 **** 0.06
19770 H 37.93468234615182 39.36709099139162 67.59734855119359 H 0.0 **** 0.06
19771 C 98.83048425699366 52.73638005301231 28.004969248082716 C 0.0 **** -0.24
19772 H 99.40403337354155 52.30141074732713 28.823986273667288 H 0.0 **** 0.06
19773 H 98.0033191336193 52.073843324397416 27.749235604363264 H 0.0 **** 0.06
19774 H 99.47753066679093 52.86245609950907 27.13667406447678 H 0.0 **** 0.06
19775 H 98.43951446655984 53.70676149250251 28.311668187977887 H 0.0 **** 0.06
19776 C 35.05380221850521 28.03603468655743 81.02531533101774 C 0.0 **** -0.24
19777 H 35.54107537521578 27.06155155238605 81.06207453249965 H 0.0 **** 0.06
19778 H 35.731384982788484 28.764086343173545 80.5780333486453 H 0.0 **** 0.06
19779 H 34.79668309614419 28.352076431016087 82.03623723555842 H 0.0 **** 0.06
19780 H 34.147063916114774 27.96673183223686 80.42586941422496 H 0.0 **** 0.06
19781 C 28.284713573869396 78.68036056090136 2.5530480804447393 C 0.0 **** -0.24
19782 H 28.83623055909348 79.61496991357023 2.448028394325661 H 0.0 **** 0.06
19783 H 27.468872134232583 78.81836965082525 3.2622870713308885 H 0.0 **** 0.06
19784 H 28.95660522096705 77.90324505203372 2.918284804380505 H 0.0 **** 0.06
19785 H 27.880244031551626 78.38571458663398 1.5855080075287447 H 0.0 **** 0.06
19786 C 46.052954853580445 45.47460688554324 52.9445600599749 C 0.0 **** -0.24
19787 H 47.061632562246736 45.821002533835724 52.717124092681416 H 0.0 **** 0.06
19788 H 45.33116486040737 46.05798503065297 52.373366703298345 H 0.0 **** 0.06
19789 H 45.85970189386515 45.59662307966917 54.010142554911596 H 0.0 **** 0.06
19790 H 45.963243872440216 44.42120296884042 52.67761829980532 H 0.0 **** 0.06
19791 C 60.63670930682224 13.515776522796273 63.828039350818244 C 0.0 **** -0.24
19792 H 60.3953786352146 12.838041055244076 63.00914077487943 H 0.0 **** 0.06
19793 H 61.2077167742608 14.361225027223696 63.44384142359837 H 0.0 **** 0.06
19794 H 61.22835458838907 12.98598920383671 64.57426650300994 H 0.0 **** 0.06
19795 H 59.7146848473468 13.875794533603056 64.28377790139885 H 0.0 **** 0.06
19796 C 106.64228482188884 77.2960637792705 28.71640004142114 C 0.0 **** -0.24
19797 H 106.11885487145571 77.10357915900228 29.652605926886693 H 0.0 **** 0.06
19798 H 107.40011433415583 78.06302572448553 28.875351359723737 H 0.0 **** 0.06
19799 H 105.92957035164278 77.63969831653046 27.96659531478184 H 0.0 **** 0.06
19800 H 107.11946877719691 76.3791968745325 28.370633829100797 H 0.0 **** 0.06
19801 C 74.39608560849015 18.635662396480804 107.79532467014673 C 0.0 **** -0.24
19802 H 75.18736053186981 18.6064030639636 107.04482901718029 H 0.0 **** 0.06
19803 H 73.65125030444416 19.378231351030795 107.50882779804239 H 0.0 **** 0.06
19804 H 74.82304418016109 18.9022052951464 108.76156425507077 H 0.0 **** 0.06
19805 H 73.92560338483224 17.654761966649748 107.86398005820449 H 0.0 **** 0.06
19806 C 30.3569463131588 68.49078970005968 68.34669852635983 C 0.0 **** -0.24
19807 H 31.064401859820464 68.34029317931956 67.5310869817443 H 0.0 **** 0.06
19808 H 30.63350571044211 67.85409238742548 69.18749588550736 H 0.0 **** 0.06
19809 H 29.353725286056232 68.23223085764091 68.00935511460506 H 0.0 **** 0.06
19810 H 30.378871335134733 69.53440257674212 68.65902710544998 H 0.0 **** 0.06
19811 C 23.694289514488403 70.80849254882719 68.32304545794148 C 0.0 **** -0.24
19812 H 24.527238099007008 70.3829895570652 67.7629092095292 H 0.0 **** 0.06
19813 H 23.754191601790495 71.8966943829165 68.29249598522452 H 0.0 **** 0.06
19814 H 23.741597906159996 70.47055454583746 69.35743487614218 H 0.0 **** 0.06
19815 H 22.7543446842774 70.48355770244854 67.87736084523311 H 0.0 **** 0.06
19816 C 94.12256450566576 26.93593641404945 42.07066389058275 C 0.0 **** -0.24
19817 H 94.6707834475359 27.291544958105874 41.19864367712793 H 0.0 **** 0.06
19818 H 93.21802800746195 26.42065773217189 41.745421819970346 H 0.0 **** 0.06
19819 H 93.85133093961714 27.784405121545177 42.69857385108 H 0.0 **** 0.06
19820 H 94.74871895975247 26.248399597097574 42.638448540907376 H 0.0 **** 0.06
19821 C 81.6292351639893 90.96313262171788 15.190996157326566 C 0.0 **** -0.24
19822 H 82.60725580583117 90.56537488999572 14.922366147466477 H 0.0 **** 0.06
19823 H 80.8768016595608 90.18113017504072 15.084053285744687 H 0.0 **** 0.06
19824 H 81.38252296328533 91.79703898852057 14.532650448132415 H 0.0 **** 0.06
19825 H 81.64906482815739 91.309158416338 16.22437394900902 H 0.0 **** 0.06
19826 C 107.17007832642994 90.79864022884203 81.54879698778893 C 0.0 **** -0.24
19827 H 108.25094197272898 90.66074020614712 81.51059848294437 H 0.0 **** 0.06
19828 H 106.67760952950916 89.82823249488882 81.48569349687784 H 0.0 **** 0.06
19829 H 106.85395512915959 91.42227577843056 80.71312210349845 H 0.0 **** 0.06
19830 H 106.89859101415574 91.28358817489698 82.4869179305901 H 0.0 **** 0.06
19831 C 58.187949594406575 92.71889924333054 5.677314560118219 C 0.0 **** -0.24
19832 H 58.367587144074975 92.23838708793606 4.715538518265049 H 0.0 **** 0.06
19833 H 58.059571998782815 91.95675374714978 6.445203947975003 H 0.0 **** 0.06
19834 H 57.28658067879718 93.32940125029425 5.615039707834811 H 0.0 **** 0.06
19835 H 59.03791174932468 93.35163077436097 5.9305354448415954 H 0.0 **** 0.06
19836 C 39.500023986630936 33.95933251515919 32.85075858844539 C 0.0 **** -0.24
19837 H 39.254690620957035 33.020229220757926 32.35476839269725 H 0.0 **** 0.06
19838 H 39.3912018018417 34.78229840322615 32.14372771467001 H 0.0 **** 0.06
19839 H 40.52887987555556 33.92225417736569 33.209403971461796 H 0.0 **** 0.06
19840 H 38.826708231417 34.11193813341336 33.69382627007559 H 0.0 **** 0.06
19841 C 39.64262459195385 87.04428027827777 38.10178298163663 C 0.0 **** -0.24
19842 H 38.584191227620295 87.10038544475572 37.845566658436496 H 0.0 **** 0.06
19843 H 39.84374084564911 86.10107185437096 38.60991176700077 H 0.0 **** 0.06
19844 H 39.90147672649141 87.87449801676388 38.75800836240023 H 0.0 **** 0.06
19845 H 40.239109638243235 87.1005146971271 37.19106511939492 H 0.0 **** 0.06
19846 C 72.58434869454831 38.36512179412068 60.142871190236136 C 0.0 **** -0.24
19847 H 72.66453031558379 39.12065104497708 60.924239973114084 H 0.0 **** 0.06
19848 H 73.32979352322627 37.58838316902455 60.31182331355433 H 0.0 **** 0.06
19849 H 72.75520390981245 38.82844370559144 59.17144182844255 H 0.0 **** 0.06
19850 H 71.58725690050755 37.92475862780151 60.16523172223921 H 0.0 **** 0.06
19851 C 5.9704368520866 56.50654684058222 66.21395609086812 C 0.0 **** -0.24
19852 H 5.110736599893828 55.85554957819576 66.3695925980366 H 0.0 **** 0.06
19853 H 6.178781144077917 57.058817054834435 67.13084978621544 H 0.0 **** 0.06
19854 H 5.753630489339134 57.20820377522759 65.40806136221346 H 0.0 **** 0.06
19855 H 6.838599175035306 55.90361695407117 65.94732061700722 H 0.0 **** 0.06
19856 C 51.95582511281761 30.118820438820975 29.634798605878018 C 0.0 **** -0.24
19857 H 51.85667020243016 30.349315121024347 28.573999734927554 H 0.0 **** 0.06
19858 H 51.39713847536761 30.849567505021767 30.2198376752998 H 0.0 **** 0.06
19859 H 53.00821069900197 30.15418959004299 29.91654199105541 H 0.0 **** 0.06
19860 H 51.56197754059816 29.120334402949332 29.827815497151022 H 0.0 **** 0.06
19861 C 75.4257928807743 77.64653887083517 79.95606322574451 C 0.0 **** -0.24
19862 H 74.72625877075308 77.77835037476257 79.13039773331501 H 0.0 **** 0.06
19863 H 75.20070492712138 78.36964952440115 80.74042548997667 H 0.0 **** 0.06
19864 H 76.44264045496159 77.80244635567954 79.59771070594755 H 0.0 **** 0.06
19865 H 75.33083888774101 76.63618137563594 80.35456445534824 H 0.0 **** 0.06
19866 C 42.242546557816596 109.3799470942389 32.69917822454093 C 0.0 **** -0.24
19867 H 43.15381611625644 109.43798398506544 32.103896572824226 H 0.0 **** 0.06
19868 H 41.49248614307888 108.80226185445292 32.158571257233206 H 0.0 **** 0.06
19869 H 41.864795316634456 110.38634416628554 32.882687680601464 H 0.0 **** 0.06
19870 H 42.46084412218079 108.894387083595 33.65033035840534 H 0.0 **** 0.06
19871 C 47.44546442660294 40.45814865005394 19.96119359745353 C 0.0 **** -0.24
19872 H 46.559956678099155 41.04459894379744 19.718869960487496 H 0.0 **** 0.06
19873 H 48.1398553839565 40.48393093346334 19.12019995591362 H 0.0 **** 0.06
19874 H 47.154520132664516 39.426256916053376 20.16137269280108 H 0.0 **** 0.06
19875 H 47.92884115523347 40.87778790398937 20.84381333437554 H 0.0 **** 0.06
19876 C 39.1222962371213 64.44621771748953 70.57383749961842 C 0.0 **** -0.24
19877 H 40.05074092048919 64.84042969618866 70.98810934802066 H 0.0 **** 0.06
19878 H 38.31334250969832 65.15266188826871 70.75885158555069 H 0.0 **** 0.06
19879 H 38.88907340767532 63.49335809941954 71.04827543848214 H 0.0 **** 0.06
19880 H 39.238979941178826 64.298585582214 69.49960360409449 H 0.0 **** 0.06
19881 C 54.852485003174934 104.38112542062622 102.07180750473749 C 0.0 **** -0.24
19882 H 54.60975955956093 105.33816504652951 102.53350896731062 H 0.0 **** 0.06
19883 H 55.93011077345383 104.22002876608413 102.11191156780991 H 0.0 **** 0.06
19884 H 54.523791840385655 104.38576200330303 101.03264147864631 H 0.0 **** 0.06
19885 H 54.34521178922921 103.57987594897219 102.60981209228169 H 0.0 **** 0.06
19886 C 33.01937032553167 6.8611577725984425 43.52014576040034 C 0.0 **** -0.24
19887 H 33.99488124546255 6.771910422891237 43.041619782900796 H 0.0 **** 0.06
19888 H 32.643710356391495 7.876604877830815 43.39105456460342 H 0.0 **** 0.06
19889 H 33.116208129181246 6.6416267560367075 44.583554581024885 H 0.0 **** 0.06
19890 H 32.32504087523233 6.155145418320052 43.06441019141644 H 0.0 **** 0.06
19891 C 5.851586999005207 93.37714598108676 55.120736726966925 C 0.0 **** -0.24
19892 H 4.996615003837647 92.82166750410806 55.504914071128155 H 0.0 **** 0.06
19893 H 6.253500585315379 92.86521894359538 54.24594421009152 H 0.0 **** 0.06
19894 H 6.620386632636155 93.43977853317142 55.891056161920176 H 0.0 **** 0.06
19895 H 5.5355155626178885 94.3819567113809 54.84008928703918 H 0.0 **** 0.06
19896 C 78.13746773264319 66.30038507747949 49.44266772410896 C 0.0 **** -0.24
19897 H 77.37913398245558 66.62471320220783 50.15586192133304 H 0.0 **** 0.06
19898 H 78.76696313737796 67.14849406933423 49.172644718795254 H 0.0 **** 0.06
19899 H 77.65204256535839 65.90780938823158 48.549155291220075 H 0.0 **** 0.06
19900 H 78.75062857916441 65.52083223466565 49.894929682192014 H 0.0 **** 0.06
19901 C 69.56248159895772 53.54697984819391 79.6863475705241 C 0.0 **** -0.24
19902 H 70.01464686460312 53.99480741595007 80.57066522809771 H 0.0 **** 0.06
19903 H 68.5471574059699 53.22614778758111 79.92021360968846 H 0.0 **** 0.06
19904 H 70.15272663388724 52.68652708246329 79.37171993158051 H 0.0 **** 0.06
19905 H 69.53465240530656 54.282167008202265 78.88122448821207 H 0.0 **** 0.06
19906 C 33.93473821909032 57.92544531804342 83.01230804642918 C 0.0 **** -0.24
19907 H 34.62281074089424 58.3461532168801 82.27863043908928 H 0.0 **** 0.06
19908 H 33.007386288962266 57.63785415898482 82.51654754667567 H 0.0 **** 0.06
19909 H 33.72200024310567 58.669904779715736 83.77920854239369 H 0.0 **** 0.06
19910 H 34.38800755075533 57.04717823619982 83.47312648232398 H 0.0 **** 0.06
19911 C 66.50594586480281 63.849882514267975 92.31873058877427 C 0.0 **** -0.24
19912 H 66.1248703355161 64.84396354175516 92.55340078888503 H 0.0 **** 0.06
19913 H 67.51192625387989 63.935548359590456 91.90690951936105 H 0.0 **** 0.06
19914 H 65.85248630340638 63.37444661497338 91.58779625560359 H 0.0 **** 0.06
19915 H 66.53423965267717 63.247992715648095 93.22655095579749 H 0.0 **** 0.06
19916 C 1.258722244130979 81.96285144294237 33.82285461357708 C 0.0 **** -0.24
19917 H 0.44392802793925057 81.40467255612101 33.36181075130469 H 0.0 **** 0.06
19918 H 1.7740170520094125 81.32565238523003 34.54069672057011 H 0.0 **** 0.06
19919 H 0.8551463178480958 82.83679518299661 34.33504070001055 H 0.0 **** 0.06
19920 H 1.9592923061359784 82.28571839578632 33.05223584232934 H 0.0 **** 0.06
19921 C 67.70226149185785 88.89295930504302 63.29533737366383 C 0.0 **** -0.24
19922 H 68.6323233423869 88.73209329504118 63.83935276831029 H 0.0 **** 0.06
19923 H 67.87067134297772 89.61135695424677 62.49274115055307 H 0.0 **** 0.06
19924 H 66.94551211165742 89.28014727149419 63.977257868081196 H 0.0 **** 0.06
19925 H 67.36053917040938 87.94823969938996 62.87199770771073 H 0.0 **** 0.06
19926 C 37.34651349339967 56.94925252298036 10.394875296545024 C 0.0 **** -0.24
19927 H 38.108273343411724 57.04727540321551 9.621710918237113 H 0.0 **** 0.06
19928 H 37.8274725295999 56.833431092209395 11.365345520372102 H 0.0 **** 0.06
19929 H 36.72927581279416 56.07440530619868 10.187846844565115 H 0.0 **** 0.06
19930 H 36.7204889941832 57.84123450438154 10.402303448391876 H 0.0 **** 0.06
19931 C 42.95198708613506 76.42358358816432 61.2797786868492 C 0.0 **** -0.24
19932 H 42.28168099059758 76.68286874862434 60.4607605937763 H 0.0 **** 0.06
19933 H 43.84360370952035 77.04915879322542 61.23189113728394 H 0.0 **** 0.06
19934 H 43.238544028130974 75.37471219710213 61.1966660606022 H 0.0 **** 0.06
19935 H 42.444616982866336 76.58707478180577 62.23049154306783 H 0.0 **** 0.06
19936 C 24.009545062725717 59.68497459094317 18.89347373196763 C 0.0 **** -0.24
19937 H 22.96933724485179 59.93084361750553 18.68166766230661 H 0.0 **** 0.06
19938 H 24.557140653408023 59.5854718511751 17.954973796770215 H 0.0 **** 0.06
19939 H 24.05574813339696 58.74438069013462 19.44327476288897 H 0.0 **** 0.06
19940 H 24.456374909382586 60.47875008594838 19.492360447876898 H 0.0 **** 0.06
19941 C 44.144934701941736 45.73466379477151 97.54578851178125 C 0.0 **** -0.24
19942 H 43.2795330080651 46.31960458097839 97.8574837524373 H 0.0 **** 0.06
19943 H 44.902324362070516 45.760623939751355 98.33036979806796 H 0.0 **** 0.06
19944 H 44.55652918186297 46.15603796621042 96.6287091703884 H 0.0 **** 0.06
19945 H 43.840575903136255 44.70329276633308 97.36735292127416 H 0.0 **** 0.06
19946 C 10.940231749538498 13.703551826669987 59.01114598334789 C 0.0 **** -0.24
19947 H 10.111021544862622 13.738269672442865 58.30464344881864 H 0.0 **** 0.06
19948 H 10.620700933592822 14.123799243880384 59.965326758348 H 0.0 **** 0.06
19949 H 11.775932841482494 14.282407320465701 58.619206341388576 H 0.0 **** 0.06
19950 H 11.250543849339024 12.668584187874696 59.15590141292813 H 0.0 **** 0.06
19951 C 97.32616532564708 6.192997025325212 16.857342140826233 C 0.0 **** -0.24
19952 H 97.87419902130432 5.257823458075194 16.74272017253128 H 0.0 **** 0.06
19953 H 96.33046889035393 6.0851540430483055 16.42726397701489 H 0.0 **** 0.06
19954 H 97.86010272153675 6.992098520082465 16.343470200810543 H 0.0 **** 0.06
19955 H 97.2404414200999 6.436150357869195 17.916255538580515 H 0.0 **** 0.06
19956 C 32.809116144089614 97.78791056073699 46.12515705876345 C 0.0 **** -0.24
19957 H 33.26199510906781 98.08100355673561 47.07305364666882 H 0.0 **** 0.06
19958 H 31.84998210249387 98.29370091971772 46.00962877050259 H 0.0 **** 0.06
19959 H 32.65480144536622 96.70835771491659 46.1146488842314 H 0.0 **** 0.06
19960 H 33.469646736674804 98.06811138520743 45.30548304159261 H 0.0 **** 0.06
19961 C 104.43611112220799 3.7817550844508503 96.58290204168838 C 0.0 **** -0.24
19962 H 105.21258124225488 4.387517979508715 97.04958734964731 H 0.0 **** 0.06
19963 H 104.24486450142462 2.9011696556816133 97.19530690069067 H 0.0 **** 0.06
19964 H 104.76520283359235 3.471439086888097 95.59158558420451 H 0.0 **** 0.06
19965 H 103.52212764461808 4.3693200712938705 96.4951790097837 H 0.0 **** 0.06
19966 C 93.66243713915794 33.369875639994206 2.950441322767915 C 0.0 **** -0.24
19967 H 92.86178414240823 32.786615956371065 3.4075023193167624 H 0.0 **** 0.06
19968 H 94.41205545726352 33.60973842156238 3.7042894090398875 H 0.0 **** 0.06
19969 H 93.2506494014464 34.291504938782225 2.538792148506303 H 0.0 **** 0.06
19970 H 94.12262448121545 32.788987092259845 2.1512255637744033 H 0.0 **** 0.06
19971 C 78.52101464542277 20.677173892774903 85.5750966176272 C 0.0 **** -0.24
19972 H 77.88642400654254 19.801809815894416 85.4372192102563 H 0.0 **** 0.06
19973 H 77.897791178654 21.566286503510867 85.66803735544147 H 0.0 **** 0.06
19974 H 79.18347106282683 20.784580310700562 84.71572118811577 H 0.0 **** 0.06
19975 H 79.11641179522182 20.55460677075925 86.47947443251843 H 0.0 **** 0.06
19976 C 14.213305875866126 87.80803877599047 6.083272297073108 C 0.0 **** -0.24
19977 H 15.05986830527695 87.24746176776176 5.68770919635304 H 0.0 **** 0.06
19978 H 14.327911106403377 88.86319254605772 5.832709025793818 H 0.0 **** 0.06
19979 H 14.17605592768885 87.6941069574259 7.166492817268505 H 0.0 **** 0.06
19980 H 13.290042109288748 87.42862271644458 5.646427750603621 H 0.0 **** 0.06
19981 C 58.58376449550889 106.89440224698615 77.6601564930998 C 0.0 **** -0.24
19982 H 59.417320318265126 106.19199755555178 77.67021039516857 H 0.0 **** 0.06
19983 H 58.65434035544342 107.52782570152107 76.77600520608098 H 0.0 **** 0.06
19984 H 58.620273642289135 107.51463683950828 78.55626190586796 H 0.0 **** 0.06
19985 H 57.64400376571376 106.34247028628721 77.63902311965059 H 0.0 **** 0.06
19986 C 97.67434529800539 82.60012321393462 21.326292956667203 C 0.0 **** -0.24
19987 H 98.1602771671021 83.51962144653164 21.0005339480619 H 0.0 **** 0.06
19988 H 98.22244659018213 81.74225176749137 20.93574804765757 H 0.0 **** 0.06
19989 H 96.65062176589433 82.57896039819713 20.95412775193762 H 0.0 **** 0.06
19990 H 97.66592057628031 82.56080549209773 22.415826757278296 H 0.0 **** 0.06
19991 C 38.564128124605666 86.32579086735649 29.03693652441416 C 0.0 **** -0.24
19992 H 37.87634295027274 86.79314976885667 29.7418705341869 H 0.0 **** 0.06
19993 H 39.06579095381287 87.09900346748918 28.453943833214012 H 0.0 **** 0.06
19994 H 38.008938627296146 85.6690147796057 28.368177628864522 H 0.0 **** 0.06
19995 H 39.306567892213515 85.74494536218407 29.584767203784978 H 0.0 **** 0.06
19996 C 110.79563427542024 96.51669763257262 69.69464385394988 C 0.0 **** -0.24
19997 H 111.08093386337356 97.24268468277606 68.93339575230807 H 0.0 **** 0.06
19998 H 109.75150537834719 96.67025363031965 69.96881200743091 H 0.0 **** 0.06
19999 H 111.42591335102333 96.64749949366949 70.57445514517973 H 0.0 **** 0.06
20000 H 110.9239215438493 95.50878312422518 69.30175661519081 H 0.0 **** 0.06
20001 C 71.98207231347783 27.84690607729894 34.09295213067858 C 0.0 **** -0.24
20002 H 71.3379165364988 27.117349117902506 34.58430814806293 H 0.0 **** 0.06
20003 H 72.94075817377211 27.889721272795867 34.608662272191424 H 0.0 **** 0.06
20004 H 71.50815236991068 28.8282616258754 34.12481017317114 H 0.0 **** 0.06
20005 H 72.1387456161018 27.55260033384539 33.055263193534586 H 0.0 **** 0.06
20006 C 107.84304796898806 81.64325693557544 55.41326948938379 C 0.0 **** -0.24
20007 H 107.41841710547426 82.08077265283782 56.31729294222722 H 0.0 **** 0.06
20008 H 108.8761042236382 81.34982126671838 55.60193865787321 H 0.0 **** 0.06
20009 H 107.81413587583458 82.3773872282352 54.60705325302043 H 0.0 **** 0.06
20010 H 107.26243395466919 80.76591678217369 55.126970015500916 H 0.0 **** 0.06
20011 C 42.146181878848495 60.20139784342388 5.42472565628708 C 0.0 **** -0.24
20012 H 43.194802977686095 60.31276966485643 5.699263092637921 H 0.0 **** 0.06
20013 H 41.9817722617596 60.6316667963448 4.437183352124293 H 0.0 **** 0.06
20014 H 41.522826911659536 60.716572077589774 6.155323224945107 H 0.0 **** 0.06
20015 H 41.88610464995725 59.1434816054192 5.407557346797148 H 0.0 **** 0.06
20016 C 13.303685611932138 102.64715805412652 95.01522490620644 C 0.0 **** -0.24
20017 H 13.879168533241952 103.5347374315094 94.74875336449256 H 0.0 **** 0.06
20018 H 13.885951220879608 101.75451961600388 94.7851528636769 H 0.0 **** 0.06
20019 H 12.374271705243157 102.6328801980722 94.44643000778552 H 0.0 **** 0.06
20020 H 13.07646859543225 102.66933715340309 96.08138403249171 H 0.0 **** 0.06
20021 C 91.09309658707284 51.37678872951852 80.02268469316714 C 0.0 **** -0.24
20022 H 91.13872156506602 52.40007674752985 79.65065015097328 H 0.0 **** 0.06
20023 H 92.05611817715123 50.89042991643452 79.86705289213141 H 0.0 **** 0.06
20024 H 90.3179200108915 50.82999704657234 79.48647127679097 H 0.0 **** 0.06
20025 H 90.85863369472719 51.38775079548072 81.08790805098315 H 0.0 **** 0.06
20026 C 2.71669760928242 101.19950059149636 18.98536178951576 C 0.0 **** -0.24
20027 H 2.305002430977936 102.17722516321669 19.236436464888875 H 0.0 **** 0.06
20028 H 2.740403953078385 101.08238197356508 17.902001294274275 H 0.0 **** 0.06
20029 H 2.0920993655604434 100.42049277420008 19.422889619041946 H 0.0 **** 0.06
20030 H 3.7285634811974546 101.11909173445963 19.38277796125189 H 0.0 **** 0.06
20031 C 72.36101001456319 54.13756197730001 25.97393178805953 C 0.0 **** -0.24
20032 H 73.36976129534906 54.54677785703555 26.02964490132544 H 0.0 **** 0.06
20033 H 71.83937645190747 54.57273248439333 25.121312996041013 H 0.0 **** 0.06
20034 H 71.82152097925223 54.374331369997634 26.890871020694334 H 0.0 **** 0.06
20035 H 72.41544155210414 53.0558563859621 25.852692622007936 H 0.0 **** 0.06
20036 C 68.34031207103425 35.591985012592914 9.59793673859599 C 0.0 **** -0.24
20037 H 67.34354832472974 35.66950820123667 9.165917265840875 H 0.0 **** 0.06
20038 H 69.0675823953415 35.41651108727484 8.804703765005598 H 0.0 **** 0.06
20039 H 68.36705686678309 34.76228278097828 10.305438493955663 H 0.0 **** 0.06
20040 H 68.58399505308232 36.51893025323025 10.116478758442895 H 0.0 **** 0.06
20041 C 68.47188364026488 68.9717478778796 35.56086891638135 C 0.0 **** -0.24
20042 H 68.67815616148715 68.80647932565653 36.61887966398612 H 0.0 **** 0.06
20043 H 67.77615649493818 68.2124475387776 35.20426767165765 H 0.0 **** 0.06
20044 H 69.40139888676705 68.9071416983012 34.99552993516242 H 0.0 **** 0.06
20045 H 68.03335840564009 69.95990299145302 35.426411643954836 H 0.0 **** 0.06
20046 C 54.11410258293554 58.24045177440428 2.2585703143270877 C 0.0 **** -0.24
20047 H 54.54868474424696 59.19732932444265 1.9654465410085322 H 0.0 **** 0.06
20048 H 53.321386340585455 57.97338661937073 1.5598923610733522 H 0.0 **** 0.06
20049 H 53.70157104086055 58.32288781111788 3.263665191807405 H 0.0 **** 0.06
20050 H 54.88626575570073 57.47188698768491 2.244186769324628 H 0.0 **** 0.06
20051 C 85.94432732347649 11.800189668512587 57.72072055329526 C 0.0 **** -0.24
20052 H 85.59282421774508 11.144132753327654 58.516847180411624 H 0.0 **** 0.06
20053 H 86.87998921548188 11.412156993956074 57.316469063572505 H 0.0 **** 0.06
20054 H 86.10881405922997 12.80064877860697 58.12078106192034 H 0.0 **** 0.06
20055 H 85.19669648000185 11.84315194058334 56.92950880410957 H 0.0 **** 0.06
20056 C 10.255614404040557 80.57823504846846 5.953753730702397 C 0.0 **** -0.24
20057 H 10.133897167272892 80.35869207977706 7.014976886581319 H 0.0 **** 0.06
20058 H 9.60804394380142 81.41145602237924 5.679230356568809 H 0.0 **** 0.06
20059 H 9.98491036892949 79.70013143644522 5.368096778716033 H 0.0 **** 0.06
20060 H 11.293659262576057 80.84337477670618 5.753547540184117 H 0.0 **** 0.06
20061 C 12.213779514823102 49.50991679181007 27.33627161508295 C 0.0 **** -0.24
20062 H 13.183659619526338 49.972375841574916 27.51895421368721 H 0.0 **** 0.06
20063 H 11.970164724625306 49.58307489231936 26.276496901266796 H 0.0 **** 0.06
20064 H 11.45038901141983 50.025181170435246 27.920354106853694 H 0.0 **** 0.06
20065 H 12.249957306495162 48.460936299648665 27.62998034452903 H 0.0 **** 0.06
20066 C 57.29126891036253 43.54149627771387 33.65189332534021 C 0.0 **** -0.24
20067 H 58.224316379058024 43.77131358463349 34.165554804436766 H 0.0 **** 0.06
20068 H 56.682834670896376 44.443562624033675 33.583170390109984 H 0.0 **** 0.06
20069 H 56.74810203430477 42.77747205500427 34.20885069085506 H 0.0 **** 0.06
20070 H 57.50922004352481 43.17300809441402 32.64888307858109 H 0.0 **** 0.06
20071 C 92.7520828672071 75.0856281858754 93.08999812699187 C 0.0 **** -0.24
20072 H 92.9684787488107 74.01960520223835 93.16135332083837 H 0.0 **** 0.06
20073 H 91.80318676714978 75.29701012509906 93.58368794328186 H 0.0 **** 0.06
20074 H 92.68840378153584 75.37352000373762 92.04092664414125 H 0.0 **** 0.06
20075 H 93.54838274161642 75.65101253226527 93.5743748360652 H 0.0 **** 0.06
20076 C 43.82303812053789 29.888363952609453 8.346792289596806 C 0.0 **** -0.24
20077 H 43.50804083918183 29.00259338948578 7.795365102130603 H 0.0 **** 0.06
20078 H 44.40576860578767 30.53579472766313 7.690920087530259 H 0.0 **** 0.06
20079 H 44.43284386667847 29.58843673936562 9.197908178152773 H 0.0 **** 0.06
20080 H 42.94380175518691 30.426928330016054 8.701550799314333 H 0.0 **** 0.06
20081 C 12.555696348758332 47.31051538604618 35.85743672891658 C 0.0 **** -0.24
20082 H 12.8403830278167 46.52730338674445 35.15514749409624 H 0.0 **** 0.06
20083 H 13.446284734825085 47.85025324458297 36.18008069002383 H 0.0 **** 0.06
20084 H 12.068415240385363 46.863421552286184 36.723922711833325 H 0.0 **** 0.06
20085 H 11.868229930031703 48.00267457427617 35.37016025210551 H 0.0 **** 0.06
20086 C 33.18138376657279 109.04629887588327 47.40893599559895 C 0.0 **** -0.24
20087 H 33.33852650056534 110.09327204452245 47.66695351973083 H 0.0 **** 0.06
20088 H 33.377434050101215 108.90033670720072 46.34664645488293 H 0.0 **** 0.06
20089 H 32.15056743225071 108.76846236064118 47.629807701495 H 0.0 **** 0.06
20090 H 33.85925837993872 108.42223323822644 47.99271412469244 H 0.0 **** 0.06
20091 C 98.18229138313734 32.34288760546935 85.47548984598569 C 0.0 **** -0.24
20092 H 99.21413098327105 32.09531133946004 85.72337435591771 H 0.0 **** 0.06
20093 H 98.11915143246819 32.62183443609451 84.42366155865969 H 0.0 **** 0.06
20094 H 97.85013780761473 33.1761818895272 86.09403275468026 H 0.0 **** 0.06
20095 H 97.54705975076544 31.476460665449537 85.66048141181943 H 0.0 **** 0.06
20096 C 110.0404044780421 87.49042696938815 26.08438296377559 C 0.0 **** -0.24
20097 H 110.31304637048956 86.95818949483981 25.17303099856981 H 0.0 **** 0.06
20098 H 109.0611768214053 87.95157114330978 25.95615280683734 H 0.0 **** 0.06
20099 H 110.78266374513538 88.26090936571487 26.29081393059474 H 0.0 **** 0.06
20100 H 110.0050866179878 86.78745559349719 26.91733054993835 H 0.0 **** 0.06
20101 C 50.97707403234349 36.45546021390399 85.05999960651098 C 0.0 **** -0.24
20102 H 52.03503202776014 36.28514532389042 84.8584990127531 H 0.0 **** 0.06
20103 H 50.46125390597934 36.6802363455605 84.1258641372001 H 0.0 **** 0.06
20104 H 50.86904512533805 37.294695361879974 85.74680950224877 H 0.0 **** 0.06
20105 H 50.544859209489275 35.56040582513987 85.50807186621824 H 0.0 **** 0.06
20106 C 50.53034702979147 48.844001459152395 71.42389604106059 C 0.0 **** -0.24
20107 H 50.136567790794345 48.095376638230846 72.11112853774092 H 0.0 **** 0.06
20108 H 51.52643203634943 49.145957749123966 71.74858485329736 H 0.0 **** 0.06
20109 H 49.87214137393789 49.71209250260921 71.41669016668776 H 0.0 **** 0.06
20110 H 50.58681381217292 48.42277633338671 70.42046114160796 H 0.0 **** 0.06
20111 C 16.87363197416076 110.18940203927166 100.57905666354432 C 0.0 **** -0.24
20112 H 17.387084854670263 110.85900544115844 101.26941249944217 H 0.0 **** 0.06
20113 H 15.90392102950426 110.61410032734466 100.31614818803622 H 0.0 **** 0.06
20114 H 16.728040128025526 109.21966552813188 101.05592025980633 H 0.0 **** 0.06
20115 H 17.474026505568872 110.06603438467239 99.67797812270105 H 0.0 **** 0.06
20116 C 39.896745728464246 56.07989129800945 15.387302317683933 C 0.0 **** -0.24
20117 H 40.20529895194069 56.85168434783759 14.683111959547752 H 0.0 **** 0.06
20118 H 39.74887707279057 55.14049751989069 14.855021471445934 H 0.0 **** 0.06
20119 H 38.964385942427846 56.377510339747396 15.867073997402883 H 0.0 **** 0.06
20120 H 40.6697740586504 55.950285092200915 16.14573375074458 H 0.0 **** 0.06
20121 C 4.614008196970069 30.288850367711603 101.37660516580756 C 0.0 **** -0.24
20122 H 3.9888797549612534 29.542063893040137 100.88645299014577 H 0.0 **** 0.06
20123 H 5.024386821104887 30.966787184297573 100.62755921365559 H 0.0 **** 0.06
20124 H 5.429248827706122 29.79230891957843 101.90311162351128 H 0.0 **** 0.06
20125 H 4.012467720904166 30.855084281250015 102.08820686627936 H 0.0 **** 0.06
20126 C 72.8120442054796 102.97763524466703 29.306201062196017 C 0.0 **** -0.24
20127 H 72.55808987515061 103.55075063808457 28.413948449815976 H 0.0 **** 0.06
20128 H 72.90632702173644 103.65352792764374 30.15674477996852 H 0.0 **** 0.06
20129 H 73.75654640483248 102.45805579299423 29.14707066359434 H 0.0 **** 0.06
20130 H 72.02564526755907 102.2504396614895 29.505442040073994 H 0.0 **** 0.06
20131 C 99.93863999439455 82.90905472882928 27.499713104147645 C 0.0 **** -0.24
20132 H 98.99039105778901 82.4172100535632 27.28000974850005 H 0.0 **** 0.06
20133 H 99.87275952657218 83.9631337780647 27.23130516519717 H 0.0 **** 0.06
20134 H 100.734758054031 82.43571885023418 26.925031528574607 H 0.0 **** 0.06
20135 H 100.15600845571471 82.81755373101593 28.564183527498756 H 0.0 **** 0.06
20136 C 19.871433661955052 57.30291001982977 35.19980680001524 C 0.0 **** -0.24
20137 H 20.280049457791847 57.20458670330993 36.205950145495336 H 0.0 **** 0.06
20138 H 18.792489466898786 57.15037406561521 35.2290291443739 H 0.0 **** 0.06
20139 H 20.32739009011948 56.556352280258864 34.5491978308811 H 0.0 **** 0.06
20140 H 20.087689729478654 58.3001719559295 34.81570302157263 H 0.0 **** 0.06
20141 C 49.84060672247392 74.71533232011794 18.771385069996313 C 0.0 **** -0.24
20142 H 49.509274531782864 75.52798037945433 18.12601403607914 H 0.0 **** 0.06
20143 H 50.68951135251024 74.20863523634108 18.31089968172961 H 0.0 **** 0.06
20144 H 49.02480643230459 74.00564516686708 18.908930564162915 H 0.0 **** 0.06
20145 H 50.138576110886504 75.11747342146583 19.739072235661297 H 0.0 **** 0.06
20146 C 87.35103979736772 11.31318935919407 104.52987170515837 C 0.0 **** -0.24
20147 H 87.06506945735362 10.262695776331967 104.47950389575578 H 0.0 **** 0.06
20148 H 87.06699577142612 11.812565262809045 103.60269075657823 H 0.0 **** 0.06
20149 H 88.42920595287208 11.390139821594389 104.66971122033792 H 0.0 **** 0.06
20150 H 86.84144876821316 11.788025103620527 105.36879826523408 H 0.0 **** 0.06
20151 C 95.25221686859223 85.32134579015462 37.025830714175754 C 0.0 **** -0.24
20152 H 95.46284002945436 84.51025485724938 36.328900942701466 H 0.0 **** 0.06
20153 H 96.13847637117725 85.51980019440575 37.62936507536051 H 0.0 **** 0.06
20154 H 94.4254006687261 85.03645725920177 37.67618001275673 H 0.0 **** 0.06
20155 H 94.98420406217213 86.21838172187921 36.46813960300955 H 0.0 **** 0.06
20156 C 102.82115603403004 58.98229026645197 106.47419329101939 C 0.0 **** -0.24
20157 H 102.48225434425079 59.475607581499844 107.38490695548725 H 0.0 **** 0.06
20158 H 103.86489050152392 58.69053304081075 106.58660666246296 H 0.0 **** 0.06
20159 H 102.72253233675339 59.667082736005455 105.63165225706625 H 0.0 **** 0.06
20160 H 102.2123652251994 58.09514099884649 106.29444414989894 H 0.0 **** 0.06
20161 C 0.9623767918510282 10.729675598764619 45.36552436416312 C 0.0 **** -0.24
20162 H 1.1182383691589877 9.720086943536579 44.98374994302469 H 0.0 **** 0.06
20163 H 1.011602642766249 10.71693922118957 46.45458054202058 H 0.0 **** 0.06
20164 H -0.01618050262061388 11.089933676755138 45.049408199440364 H 0.0 **** 0.06
20165 H 1.7375407079095453 11.389097354662887 44.973993230487935 H 0.0 **** 0.06
20166 C 104.70849124841777 51.78561097194117 98.78254181592706 C 0.0 **** -0.24
20167 H 104.38754658477575 51.18602511840757 99.63520302131059 H 0.0 **** 0.06
20168 H 105.45661098298541 52.5082378765359 99.10782927385617 H 0.0 **** 0.06
20169 H 103.84912577503025 52.31260746364501 98.36622524692041 H 0.0 **** 0.06
20170 H 105.13795230127266 51.134081063487315 98.02147892997198 H 0.0 **** 0.06
20171 C 5.612555704114996 39.30102468912362 65.67595049970254 C 0.0 **** -0.24
20172 H 5.246980566525622 40.31979870670955 65.8110213569684 H 0.0 **** 0.06
20173 H 5.513126596148794 39.01599491242608 64.6282947159408 H 0.0 **** 0.06
20174 H 5.028770208398328 38.62066573367514 66.29608913478593 H 0.0 **** 0.06
20175 H 6.661571164149862 39.250058848366024 65.96870604850646 H 0.0 **** 0.06
20176 C 19.626429609370444 74.50956037194233 21.978285516811752 C 0.0 **** -0.24
20177 H 18.65983772867685 74.97300991208208 21.785056876982566 H 0.0 **** 0.06
20178 H 19.484849877337414 73.61249970864093 22.5823800107203 H 0.0 **** 0.06
20179 H 20.26472269024399 75.21131818035488 22.51444464909102 H 0.0 **** 0.06
20180 H 20.09581769894986 74.24084248092221 21.032457731731256 H 0.0 **** 0.06
20181 C 97.29105213484432 49.26902317515181 109.20548325979414 C 0.0 **** -0.24
20182 H 96.67600932353105 50.16627496250493 109.13787932215335 H 0.0 **** 0.06
20183 H 98.31584273377896 49.548743727182924 109.44987101730018 H 0.0 **** 0.06
20184 H 97.27484796932906 48.74567574248694 108.24973559607696 H 0.0 **** 0.06
20185 H 96.89593263837976 48.61678956917892 109.98368476931907 H 0.0 **** 0.06
20186 C 93.84949370385542 90.81173433547045 74.3419005408885 C 0.0 **** -0.24
20187 H 94.51131550605997 89.94685372672856 74.36084995293379 H 0.0 **** 0.06
20188 H 92.81887777022924 90.47739480458135 74.21532368161166 H 0.0 **** 0.06
20189 H 94.12541728886872 91.462341665987 73.51272025214541 H 0.0 **** 0.06
20190 H 93.94066225254355 91.36022157035153 75.27975117474068 H 0.0 **** 0.06
20191 C 96.19360947192308 3.135956679608796 73.24832920600878 C 0.0 **** -0.24
20192 H 96.34945500041283 3.188707311704718 74.32588351017817 H 0.0 **** 0.06
20193 H 95.41118641670681 2.4094483754769556 73.03008036899213 H 0.0 **** 0.06
20194 H 97.12015938617157 2.8288766971223396 72.76220995835858 H 0.0 **** 0.06
20195 H 95.89560526388146 4.115588652620218 72.875963293334 H 0.0 **** 0.06
20196 C 2.6112068594811717 28.735083322944973 79.14606563059357 C 0.0 **** -0.24
20197 H 3.30613678743687 28.355602657546683 79.8940171425462 H 0.0 **** 0.06
20198 H 3.1706146650178795 29.17970542564521 78.32235762658269 H 0.0 **** 0.06
20199 H 1.9673328099254945 29.48970373190781 79.59779450677357 H 0.0 **** 0.06
20200 H 1.9997960713217253 27.91476019006882 78.76842347042674 H 0.0 **** 0.06
20201 C 22.566312773444025 72.96445690100205 56.46592816358256 C 0.0 **** -0.24
20202 H 23.531441612036332 73.23386903401166 56.89289663035248 H 0.0 **** 0.06
20203 H 21.895892050035684 72.63709279260715 57.261671597885595 H 0.0 **** 0.06
20204 H 22.700017520173816 72.15505049296695 55.74721395564967 H 0.0 **** 0.06
20205 H 22.136672987359844 73.83059270530677 55.961940873267565 H 0.0 **** 0.06
20206 C 104.81731667650047 38.894117190580914 16.890347705248303 C 0.0 **** -0.24
20207 H 104.47043130270498 39.88533757971643 16.60097194065719 H 0.0 **** 0.06
20208 H 105.7932116825769 38.97671573735689 17.370756118635086 H 0.0 **** 0.06
20209 H 104.90028126110735 38.26477864497882 16.00422829609363 H 0.0 **** 0.06
20210 H 104.1065370349935 38.44913192709857 17.58599855185406 H 0.0 **** 0.06
20211 C 2.429716071079099 2.7010639920940633 68.23730651161928 C 0.0 **** -0.24
20212 H 1.6789181287311408 1.9365579921373381 68.43669996347265 H 0.0 **** 0.06
20213 H 2.1276206231298715 3.2905082136252304 67.37117510046096 H 0.0 **** 0.06
20214 H 3.388979284409629 2.2236677889330707 68.03477074839728 H 0.0 **** 0.06
20215 H 2.5241571375837566 3.3530291772166834 69.10626454429838 H 0.0 **** 0.06
20216 C 5.410258951369544 89.83711825862045 62.114527267277296 C 0.0 **** -0.24
20217 H 5.993942959456472 90.35184082405715 62.877648741876456 H 0.0 **** 0.06
20218 H 5.956769577774633 89.85009253655147 61.17035056443187 H 0.0 **** 0.06
20219 H 4.453041901257343 90.34173984160367 61.98826466094083 H 0.0 **** 0.06
20220 H 5.240501867887451 88.80558836212803 62.421760557891915 H 0.0 **** 0.06
20221 C 48.47215688417839 27.80806929855919 18.728587672632585 C 0.0 **** -0.24
20222 H 48.84417119862363 28.723769629487066 18.26900418034228 H 0.0 **** 0.06
20223 H 48.85286412014284 26.946171095390497 18.17998649400755 H 0.0 **** 0.06
20224 H 47.38283101584469 27.804291498668135 18.699525983387986 H 0.0 **** 0.06
20225 H 48.80938733847711 27.758578760837025 19.76352680003754 H 0.0 **** 0.06
20226 C 87.83645003173103 81.47947780541347 99.4261772798315 C 0.0 **** -0.24
20227 H 87.31815052522651 81.3086083566348 98.48254599947197 H 0.0 **** 0.06
20228 H 88.50717614954146 80.64488162650679 99.6280197373975 H 0.0 **** 0.06
20229 H 87.10633779856761 81.56349085203578 100.2308956443631 H 0.0 **** 0.06
20230 H 88.4125309943584 82.40191581372551 99.36091226075746 H 0.0 **** 0.06
20231 C 104.01502258926305 71.31052818064268 101.54071383184605 C 0.0 **** -0.24
20232 H 104.02668014245248 70.30871490643999 101.96964736880977 H 0.0 **** 0.06
20233 H 103.87948404145098 72.04404820009395 102.33604046811318 H 0.0 **** 0.06
20234 H 103.1927286359323 71.39045637997833 100.82907493924914 H 0.0 **** 0.06
20235 H 104.9586187432058 71.49785633306873 101.02922175718885 H 0.0 **** 0.06
20236 C 56.29202504585281 24.911667128812752 45.33834301003545 C 0.0 **** -0.24
20237 H 56.271840845365084 24.09867835229855 44.61226339898597 H 0.0 **** 0.06
20238 H 55.31955353378576 25.40301659495873 45.3612246468954 H 0.0 **** 0.06
20239 H 57.05771902616256 25.633195295159 45.05292475886484 H 0.0 **** 0.06
20240 H 56.52089497309286 24.511218499316698 46.32593664219358 H 0.0 **** 0.06
20241 C 66.74956172500097 58.557788691908854 12.420137504062893 C 0.0 **** -0.24
20242 H 65.6842674861715 58.55174344177715 12.649112026653995 H 0.0 **** 0.06
20243 H 67.01670289252192 57.63366205534686 11.907733093991041 H 0.0 **** 0.06
20244 H 67.31983608874043 58.63991769206541 13.344950277358336 H 0.0 **** 0.06
20245 H 66.97667373756792 59.408872442940776 11.77671353378608 H 0.0 **** 0.06
20246 C 80.14946957689958 54.348744172255536 63.11123561714568 C 0.0 **** -0.24
20247 H 79.92595699827746 53.78586837749056 64.0167573623217 H 0.0 **** 0.06
20248 H 79.75937721283083 55.361915480360196 63.20842399753201 H 0.0 **** 0.06
20249 H 79.68524448756642 53.86018921032137 62.25514812406254 H 0.0 **** 0.06
20250 H 81.22892238154606 54.38806010346671 62.96511363884534 H 0.0 **** 0.06
20251 C 22.861172891083868 87.43274279466718 39.32672841606518 C 0.0 **** -0.24
20252 H 22.166513324745722 87.4773872683482 38.488045113969676 H 0.0 **** 0.06
20253 H 22.581759938854304 88.17938193442257 40.07017722849295 H 0.0 **** 0.06
20254 H 23.87178582047312 87.63365038666446 38.9717772115159 H 0.0 **** 0.06
20255 H 22.823771717065142 86.44070917923457 39.77739815820064 H 0.0 **** 0.06
20256 C 96.72614833054615 35.73525740772112 66.38897515588286 C 0.0 **** -0.24
20257 H 96.80020007725838 34.74174681654114 65.94622601754673 H 0.0 **** 0.06
20258 H 96.60510240303935 35.64257727019714 67.46873534160476 H 0.0 **** 0.06
20259 H 95.86629602259524 36.25658351378286 65.96981078807435 H 0.0 **** 0.06
20260 H 97.63442804188531 36.298381712813466 66.17208632258033 H 0.0 **** 0.06
20261 C 34.22370833403524 47.86486279520142 36.325365952154776 C 0.0 **** -0.24
20262 H 34.93818005638637 48.50385929499768 35.80683790023211 H 0.0 **** 0.06
20263 H 33.20874658610921 48.181096090068195 36.08021703179038 H 0.0 **** 0.06
20264 H 34.37905944785328 47.94475568027576 37.4010438151119 H 0.0 **** 0.06
20265 H 34.367126759552626 46.831015999565494 36.012722956938866 H 0.0 **** 0.06
20266 C 100.26969444086807 82.79955428505434 43.243190434835526 C 0.0 **** -0.24
20267 H 101.11249687158717 83.4135176589983 43.5615829552782 H 0.0 **** 0.06
20268 H 100.60860209074706 82.07209229913408 42.50619426697193 H 0.0 **** 0.06
20269 H 99.5038736566968 83.43738013360186 42.80010858937874 H 0.0 **** 0.06
20270 H 99.85353748967447 82.27756970655932 44.10553971663154 H 0.0 **** 0.06
20271 C 20.58628236806652 15.580930561995586 51.86264791753486 C 0.0 **** -0.24
20272 H 20.04149083346624 16.319870708347267 51.27422763890691 H 0.0 **** 0.06
20273 H 20.313114568637218 15.680622568728523 52.91288672927876 H 0.0 **** 0.06
20274 H 21.65799466246102 15.745859503531008 51.74792662194407 H 0.0 **** 0.06
20275 H 20.33273500135209 14.580201982231728 51.513837453845056 H 0.0 **** 0.06
20276 C 40.02043130087293 102.1024714485931 32.55193902407169 C 0.0 **** -0.24
20277 H 39.35319339611624 102.30738309287844 31.714537958255903 H 0.0 **** 0.06
20278 H 40.75975472459771 102.8992910510598 32.629888383344834 H 0.0 **** 0.06
20279 H 40.527148864738365 101.1516977285864 32.38687125169983 H 0.0 **** 0.06
20280 H 39.441058819092746 102.0508536214756 33.473418718284556 H 0.0 **** 0.06
20281 C 32.225838515167375 12.031296060698509 8.135226403542134 C 0.0 **** -0.24
20282 H 31.838986352240454 11.207485970748849 7.534406021178427 H 0.0 **** 0.06
20283 H 31.403646312255184 12.511817848850995 8.665516441802055 H 0.0 **** 0.06
20284 H 32.71214322593245 12.757403453413929 7.484395031944743 H 0.0 **** 0.06
20285 H 32.94805042800729 11.64760321981447 8.855609268036233 H 0.0 **** 0.06
20286 C 36.00554529550822 69.8690624078996 38.3363633107715 C 0.0 **** -0.24
20287 H 36.39497092684388 69.85268022159107 37.31855536184088 H 0.0 **** 0.06
20288 H 36.78601151920024 70.20521712743016 39.01928148319024 H 0.0 **** 0.06
20289 H 35.68250355134006 68.86604222836064 38.61826998318213 H 0.0 **** 0.06
20290 H 35.15718336708207 70.55153354719391 38.38901235601378 H 0.0 **** 0.06
20291 C 63.23449423119314 39.27140573615773 43.67791750425033 C 0.0 **** -0.24
20292 H 62.90035535927723 38.23790441110427 43.77295956113389 H 0.0 **** 0.06
20293 H 63.39788149094619 39.50478130132166 42.62515292961413 H 0.0 **** 0.06
20294 H 64.16522146136526 39.40409030002624 44.229704032342056 H 0.0 **** 0.06
20295 H 62.47260073809133 39.93769897510762 44.0837886781913 H 0.0 **** 0.06
20296 C 72.21151720434432 21.391757146821995 26.90961688116255 C 0.0 **** -0.24
20297 H 73.22780845449898 21.721535804740867 27.126002831779147 H 0.0 **** 0.06
20298 H 72.10477002897471 20.34166305149872 27.18153811947127 H 0.0 **** 0.06
20299 H 72.00738855404575 21.51615415963112 25.847079112455503 H 0.0 **** 0.06
20300 H 71.50633303213081 21.98933884843172 27.48719122167779 H 0.0 **** 0.06
20301 C 82.05199180262247 77.96758398575446 41.476129825337864 C 0.0 **** -0.24
20302 H 81.2647354376237 78.19981711281909 42.193813569087865 H 0.0 **** 0.06
20303 H 81.64849485336066 77.33129993501846 40.68862392889372 H 0.0 **** 0.06
20304 H 82.86447582117171 77.44799260639375 41.984323944905555 H 0.0 **** 0.06
20305 H 82.42884619399595 78.89215732075603 41.039527470526565 H 0.0 **** 0.06
20306 C 98.16638250267978 91.72004550021735 22.701843790059627 C 0.0 **** -0.24
20307 H 98.26222026613733 92.64339530765737 22.131582507468295 H 0.0 **** 0.06
20308 H 99.15190644625928 91.27417606102509 22.839538298206776 H 0.0 **** 0.06
20309 H 97.52416844420578 91.02523160592733 22.162352924212712 H 0.0 **** 0.06
20310 H 97.72774050679939 91.93883365344242 23.67552273430391 H 0.0 **** 0.06
20311 C 81.72009930043224 48.23383740173702 60.00062112403856 C 0.0 **** -0.24
20312 H 81.16625086937348 47.38142384477089 59.607811052012636 H 0.0 **** 0.06
20313 H 81.03444507252254 49.06334509262899 60.17694770251302 H 0.0 **** 0.06
20314 H 82.48004295433296 48.5370368794336 59.27988088509008 H 0.0 **** 0.06
20315 H 82.20090491554483 47.95366795966606 60.938501092680326 H 0.0 **** 0.06
20316 C 63.5747666485958 92.462578203247 110.49497256652386 C 0.0 **** -0.24
20317 H 63.74322627400552 93.44550493619111 110.0535779733171 H 0.0 **** 0.06
20318 H 63.819095142115074 92.49409419348814 111.5570003844478 H 0.0 **** 0.06
20319 H 64.20859513454842 91.72872201962181 109.99724444835012 H 0.0 **** 0.06
20320 H 62.528552431814845 92.1833619444167 110.3700773051615 H 0.0 **** 0.06
20321 C 8.517209759322327 91.85267633032437 69.96259018720622 C 0.0 **** -0.24
20322 H 9.110873501883248 91.40955156368926 70.76225357985996 H 0.0 **** 0.06
20323 H 8.65921315267849 92.93331326582228 69.96045153948575 H 0.0 **** 0.06
20324 H 7.4631310890644045 91.62461147558712 70.1233830767269 H 0.0 **** 0.06
20325 H 8.834573322271297 91.44190563582285 69.00388451773577 H 0.0 **** 0.06
20326 C 34.817095716878896 40.04761511689609 24.358260918923634 C 0.0 **** -0.24
20327 H 33.9250691723468 40.457980681768184 23.883858629291808 H 0.0 **** 0.06
20328 H 34.940613121757345 39.00602762538691 24.058493047895297 H 0.0 **** 0.06
20329 H 34.710557962921094 40.10354321793542 25.44136777466352 H 0.0 **** 0.06
20330 H 35.6901417107355 40.62142783677771 24.047981417734576 H 0.0 **** 0.06
20331 C 71.49035828341805 64.20256036310735 67.97025565812791 C 0.0 **** -0.24
20332 H 71.20617760216373 64.61989541410762 68.93584174244478 H 0.0 **** 0.06
20333 H 70.86699603811806 63.33599820617775 67.75126881130696 H 0.0 **** 0.06
20334 H 72.53684191211715 63.899259742567665 67.99967460282608 H 0.0 **** 0.06
20335 H 71.35234691573795 64.95536704736782 67.19447948890905 H 0.0 **** 0.06
20336 C 1.9368210072540295 90.2112442519657 80.2164270177558 C 0.0 **** -0.24
20337 H 2.4810957009205143 89.28607596820353 80.40442012052047 H 0.0 **** 0.06
20338 H 0.8849054399131111 90.07158589216544 80.46505103218017 H 0.0 **** 0.06
20339 H 2.0298327748815037 90.47884023505696 79.1645720562418 H 0.0 **** 0.06
20340 H 2.3537897519795807 91.00879953580636 80.83231371659815 H 0.0 **** 0.06
20341 C 64.27833351566271 58.454717051355125 82.55443520571357 C 0.0 **** -0.24
20342 H 64.05292769057894 59.44306110990317 82.15563964944697 H 0.0 **** 0.06
20343 H 63.38613658763522 57.83010261080822 82.50464363040231 H 0.0 **** 0.06
20344 H 64.60125539345013 58.54667169647297 83.5919975385668 H 0.0 **** 0.06
20345 H 65.07471819009642 57.998954221838375 81.96576174397197 H 0.0 **** 0.06
20346 C 63.96695087393644 61.52563822743923 41.39345793379293 C 0.0 **** -0.24
20347 H 64.97456645991406 61.199445036216844 41.65164696775936 H 0.0 **** 0.06
20348 H 63.96901008462487 61.95065713039406 40.389276939183745 H 0.0 **** 0.06
20349 H 63.636253132334076 62.281044621065064 42.10778630692703 H 0.0 **** 0.06
20350 H 63.28908199747593 60.672894367522815 41.42672069838855 H 0.0 **** 0.06
20351 C 3.088390550839467 47.58227693739093 43.40014400300123 C 0.0 **** -0.24
20352 H 2.3384936929891733 48.09392093407067 42.796809222964924 H 0.0 **** 0.06
20353 H 2.973046369444175 47.872786756601926 44.44498301510367 H 0.0 **** 0.06
20354 H 4.083472623096984 47.85858887751047 43.053559178806665 H 0.0 **** 0.06
20355 H 2.9568080136941433 46.504646507434785 43.30574382036713 H 0.0 **** 0.06
20356 C 85.30239376476548 33.21349532231304 72.5523526051807 C 0.0 **** -0.24
20357 H 84.85725974163594 34.20407484638932 72.45551421783674 H 0.0 **** 0.06
20358 H 85.40178050381284 32.96202569249803 73.60858461816574 H 0.0 **** 0.06
20359 H 86.28726831687013 33.21116902913258 72.0847315359116 H 0.0 **** 0.06
20360 H 84.66437612838223 32.478557405336346 72.06118206143339 H 0.0 **** 0.06
20361 C 36.28696283333373 60.56292111329998 7.488162062580159 C 0.0 **** -0.24
20362 H 35.27747995045786 60.16659006091879 7.603499848953007 H 0.0 **** 0.06
20363 H 36.2662514056616 61.64670849723473 7.604809829512149 H 0.0 **** 0.06
20364 H 36.6645271945772 60.31052639442436 6.497411449243415 H 0.0 **** 0.06
20365 H 36.93637206066794 60.12707188015008 8.247011721872894 H 0.0 **** 0.06
20366 C 52.6664146640274 70.94513775784452 58.96684137286201 C 0.0 **** -0.24
20367 H 52.555285049730855 70.13892549316414 58.241892606646786 H 0.0 **** 0.06
20368 H 52.93007322201237 70.52597866131957 59.93838426889056 H 0.0 **** 0.06
20369 H 51.72657269593972 71.49108443440302 59.04968483520682 H 0.0 **** 0.06
20370 H 53.453164239070134 71.62333985254442 58.63783725411662 H 0.0 **** 0.06
20371 C 41.43767781756546 38.98360498946647 37.713743651662526 C 0.0 **** -0.24
20372 H 40.451929795183496 38.59703633130292 37.4563660997276 H 0.0 **** 0.06
20373 H 41.66314680847519 39.84893876767708 37.090571193840276 H 0.0 **** 0.06
20374 H 42.18583279144676 38.20877158403698 37.54407014061351 H 0.0 **** 0.06
20375 H 41.45056321255723 39.27763791967756 38.763439966554984 H 0.0 **** 0.06
20376 C 85.96223450803166 110.81525395098305 62.948367966077114 C 0.0 **** -0.24
20377 H 86.3007795517762 110.01918603505675 62.285860746758544 H 0.0 **** 0.06
20378 H 86.73373454791766 111.02281381225237 63.69045446281228 H 0.0 **** 0.06
20379 H 85.04758270465732 110.5037251217444 63.45343294249801 H 0.0 **** 0.06
20380 H 85.7666392990435 111.71519146804621 62.36544112362043 H 0.0 **** 0.06
20381 C 0.6934185728621856 106.71331531856643 2.718959552343305 C 0.0 **** -0.24
20382 H 0.7728105320088616 107.55116317423115 2.0260543389039425 H 0.0 **** 0.06
20383 H 1.6865750354831164 106.44919036565543 3.084371729860475 H 0.0 **** 0.06
20384 H 0.25506806972606455 105.8575663023885 2.2060812438830277 H 0.0 **** 0.06
20385 H 0.06008139062117834 106.99723375210323 3.560154613209498 H 0.0 **** 0.06
20386 C 40.276568305360655 38.278424171208485 0.1984305795158008 C 0.0 **** -0.24
20387 H 40.493616834296894 38.133671902245624 -0.8603245833606366 H 0.0 **** 0.06
20388 H 40.043841979542115 37.317191872397984 0.656711780529676 H 0.0 **** 0.06
20389 H 39.423770548968164 38.94921518809883 0.3052067774292482 H 0.0 **** 0.06
20390 H 41.14629096258213 38.71481456948288 0.6903926621197201 H 0.0 **** 0.06
20391 C 45.54931312284572 60.201195211216316 97.69808086488791 C 0.0 **** -0.24
20392 H 45.20058532182594 61.231733417854315 97.63225040264922 H 0.0 **** 0.06
20393 H 45.42725327026025 59.714628126638246 96.73020917275863 H 0.0 **** 0.06
20394 H 44.966244305747395 59.66805483821429 98.44891361704191 H 0.0 **** 0.06
20395 H 46.601563930308004 60.19152515823845 97.98067671404453 H 0.0 **** 0.06
20396 C 60.143973728224125 42.33424201777264 31.54429201816899 C 0.0 **** -0.24
20397 H 59.728359403083005 43.240732872689684 31.984987857940894 H 0.0 **** 0.06
20398 H 59.67000842128962 41.4621514008331 31.995395780593185 H 0.0 **** 0.06
20399 H 61.21813544341373 42.30094740366944 31.72810671047722 H 0.0 **** 0.06
20400 H 59.95902771298029 42.334599107847076 30.470329472040078 H 0.0 **** 0.06
20401 C 49.30878077213326 38.09800546126348 47.62135008764682 C 0.0 **** -0.24
20402 H 48.353908907310895 38.587243892590095 47.425947242442135 H 0.0 **** 0.06
20403 H 50.1208224871758 38.80567245505239 47.45090224006236 H 0.0 **** 0.06
20404 H 49.423531825406236 37.24580752499418 46.95203209936432 H 0.0 **** 0.06
20405 H 49.33563264275907 37.754799958871274 48.65540602224425 H 0.0 **** 0.06
20406 C 61.53199980770813 82.21281314607796 59.9754148078963 C 0.0 **** -0.24
20407 H 60.56844346843957 81.70936067954369 59.90366890906705 H 0.0 **** 0.06
20408 H 62.16855872242263 81.67997259529585 60.68249929875236 H 0.0 **** 0.06
20409 H 61.38400947963231 83.23643242391262 60.319913258417614 H 0.0 **** 0.06
20410 H 62.00897768909164 82.22518011693046 58.99418292406051 H 0.0 **** 0.06
20411 C 23.27205120575744 25.906376867764777 4.64653799353448 C 0.0 **** -0.24
20412 H 24.069462118643337 26.599618041955353 4.380637270804897 H 0.0 **** 0.06
20413 H 23.682233337451503 24.900974202691486 4.744954786980628 H 0.0 **** 0.06
20414 H 22.509872797179966 25.913703656206394 3.8674981281228753 H 0.0 **** 0.06
20415 H 22.82625649151881 26.210699207275923 5.593831901883419 H 0.0 **** 0.06
20416 C 27.612983562904645 13.30627711893493 102.39370034490693 C 0.0 **** -0.24
20417 H 27.06084393003357 12.706263481455196 103.11609367493185 H 0.0 **** 0.06
20418 H 27.374961350657557 12.967958165450142 101.38407538367727 H 0.0 **** 0.06
20419 H 28.682285792501858 13.195472313540847 102.5705497476707 H 0.0 **** 0.06
20420 H 27.333235097017095 14.353574030413668 102.50121143146069 H 0.0 **** 0.06
20421 C 9.175507401878974 22.401526063846838 90.67212228430847 C 0.0 **** -0.24
20422 H 9.943498188910269 22.983814602208643 91.18302739386237 H 0.0 **** 0.06
20423 H 8.926865123305362 22.879658780632628 89.72521426224301 H 0.0 **** 0.06
20424 H 8.284953991973197 22.347747554976202 91.29832770450616 H 0.0 **** 0.06
20425 H 9.549494364222824 21.394575723004028 90.48440296542677 H 0.0 **** 0.06
20426 C 65.09866454529077 29.159458589535532 11.309222459738407 C 0.0 **** -0.24
20427 H 64.44646974293664 29.982974868633022 11.01989121919928 H 0.0 **** 0.06
20428 H 64.49364583095746 28.286132278333838 11.555347027088033 H 0.0 **** 0.06
20429 H 65.68725447907264 29.450881848104224 12.180194445094742 H 0.0 **** 0.06
20430 H 65.76798290895147 28.91776102908932 10.483580922246517 H 0.0 **** 0.06
20431 C 47.68161125028223 18.96401064915443 95.86524721205603 C 0.0 **** -0.24
20432 H 46.93751995211477 18.575781891298984 96.56230632939501 H 0.0 **** 0.06
20433 H 48.67676988506071 18.8452088718676 96.29404689984209 H 0.0 **** 0.06
20434 H 47.48826072889031 20.020614570002948 95.68042174092425 H 0.0 **** 0.06
20435 H 47.62185215963706 18.413313567852544 94.92677649832719 H 0.0 **** 0.06
20436 C 46.72367627119047 35.69336360274153 85.42868923656273 C 0.0 **** -0.24
20437 H 47.61806170669604 35.08813494133432 85.58346583860563 H 0.0 **** 0.06
20438 H 46.83738899205275 36.6468197884941 85.94550593650514 H 0.0 **** 0.06
20439 H 45.85579913643801 35.166009738723574 85.82568791918304 H 0.0 **** 0.06
20440 H 46.58522930946498 35.871182354218234 84.36213278066289 H 0.0 **** 0.06
20441 C 30.830865315425285 46.43442221778872 36.81211256879189 C 0.0 **** -0.24
20442 H 31.605706467244858 46.3784802535003 36.04738030911881 H 0.0 **** 0.06
20443 H 30.99500100040939 47.31638968024478 37.43134888218279 H 0.0 **** 0.06
20444 H 30.87055736471595 45.54007296623894 37.43382366096463 H 0.0 **** 0.06
20445 H 29.853571090696448 46.50157036327096 36.334245589416255 H 0.0 **** 0.06
20446 C 68.48114410826037 86.68456252915752 100.55684835058719 C 0.0 **** -0.24
20447 H 69.21505020501297 86.51714658486767 101.34567501995821 H 0.0 **** 0.06
20448 H 67.4931503331511 86.81045622611956 101.00132543830284 H 0.0 **** 0.06
20449 H 68.47008761074369 85.82731818494179 99.8834750247077 H 0.0 **** 0.06
20450 H 68.74582299091833 87.58212692675204 99.99844711297214 H 0.0 **** 0.06
20451 C 14.644150476779458 106.7128858372974 75.03174181336817 C 0.0 **** -0.24
20452 H 15.557635577583994 106.4957646855338 75.58587910332011 H 0.0 **** 0.06
20453 H 13.788654699984534 106.64523131124537 75.7024574629825 H 0.0 **** 0.06
20454 H 14.530841057389182 105.99119795286845 74.22240607672663 H 0.0 **** 0.06
20455 H 14.70220940103863 107.71832547534325 74.61555315820634 H 0.0 **** 0.06
20456 C 19.114876729782196 88.0025326242613 54.946295163767225 C 0.0 **** -0.24
20457 H 18.901283030994136 88.92528058001719 54.40717026577869 H 0.0 **** 0.06
20458 H 18.497613333987033 87.95427736878464 55.8442412312482 H 0.0 **** 0.06
20459 H 20.167228773880254 87.98062743985061 55.22772014631597 H 0.0 **** 0.06
20460 H 18.89193611619831 87.14856741181974 54.30615950453215 H 0.0 **** 0.06
20461 C 68.75895742615438 106.11598106133623 5.507652598270404 C 0.0 **** -0.24
20462 H 68.63527120372711 106.41401902422433 4.466249290154211 H 0.0 **** 0.06
20463 H 68.33412091040637 105.1215371748163 5.653471500361778 H 0.0 **** 0.06
20464 H 68.2449517478301 106.82879963661428 6.152903403181936 H 0.0 **** 0.06
20465 H 69.81952127857505 106.09851175588874 5.7581418339265245 H 0.0 **** 0.06
20466 C 51.08989829006308 0.5678065044979377 2.4767187927038066 C 0.0 **** -0.24
20467 H 52.07835759384749 0.9122254279165816 2.7815393404587496 H 0.0 **** 0.06
20468 H 51.184472515584375 -0.37425053984799206 1.9366095681773032 H 0.0 **** 0.06
20469 H 50.62969772223124 1.313827259185146 1.829019642004397 H 0.0 **** 0.06
20470 H 50.46842083162131 0.4204719920830797 3.359960005273834 H 0.0 **** 0.06
20471 C 1.2843683937887587 83.20495874632496 85.3364526391469 C 0.0 **** -0.24
20472 H 1.0307792871564434 84.12778003279664 84.81496423308363 H 0.0 **** 0.06
20473 H 0.7797652124162697 82.36658689587154 84.85559503825982 H 0.0 **** 0.06
20474 H 0.9619437220160743 83.2756014420537 86.37626068644931 H 0.0 **** 0.06
20475 H 2.3624263162819332 83.05093794371061 85.29954194649406 H 0.0 **** 0.06
20476 C 73.18819081541086 41.800720293312565 83.19187701696569 C 0.0 **** -0.24
20477 H 74.08513012411699 41.363714771570216 82.75357260652129 H 0.0 **** 0.06
20478 H 73.18605482242715 41.622301986577696 84.2675308254295 H 0.0 **** 0.06
20479 H 72.30572054887176 41.34174956279077 82.74524756388416 H 0.0 **** 0.06
20480 H 73.17553594687958 42.87398404764738 83.000371060786 H 0.0 **** 0.06
20481 C 95.33414661368748 28.19127055471008 47.67474456646244 C 0.0 **** -0.24
20482 H 94.91951568561633 27.422639496171378 47.02264855126421 H 0.0 **** 0.06
20483 H 95.74158543792818 27.72492942120607 48.57254095467749 H 0.0 **** 0.06
20484 H 94.54851190083355 28.892896750223628 47.95453108398016 H 0.0 **** 0.06
20485 H 96.12707063140475 28.72321028554969 47.149371997073104 H 0.0 **** 0.06
20486 C 41.54937837079163 43.9808533401909 93.36564084356186 C 0.0 **** -0.24
20487 H 41.762023041755526 43.80046476698952 94.41957251109687 H 0.0 **** 0.06
20488 H 40.51571656696174 43.70799820825615 93.15277682627092 H 0.0 **** 0.06
20489 H 42.21891618547039 43.37827195284111 92.75139289082458 H 0.0 **** 0.06
20490 H 41.70172372321602 45.036422756802175 93.1402992412415 H 0.0 **** 0.06
20491 C 70.69860993974893 37.84742069535616 104.86699141645788 C 0.0 **** -0.24
20492 H 69.8263528571019 38.25444898689477 104.35619865142175 H 0.0 **** 0.06
20493 H 70.547400519221 36.78395449156454 105.05245322455993 H 0.0 **** 0.06
20494 H 70.83912160369711 38.36666176673924 105.81461522146616 H 0.0 **** 0.06
20495 H 71.58159903629483 37.98563443403748 104.24205941179552 H 0.0 **** 0.06
20496 C 105.36454877135485 65.15501567595925 18.00445527002283 C 0.0 **** -0.24
20497 H 106.00692481683187 65.30042040071896 18.873520435776783 H 0.0 **** 0.06
20498 H 105.06138602512938 66.12575754434403 17.611552824045816 H 0.0 **** 0.06
20499 H 104.48063637689681 64.58879223458626 18.296610336769646 H 0.0 **** 0.06
20500 H 105.91037082716315 64.60639924704861 17.2375628558152 H 0.0 **** 0.06
20501 C 40.8539691362314 56.208964032147605 22.39767903518586 C 0.0 **** -0.24
20502 H 40.92785700133882 55.15169222802655 22.143819569060042 H 0.0 **** 0.06
20503 H 40.188067474660386 56.7055130343432 21.69118002682484 H 0.0 **** 0.06
20504 H 41.842639010037345 56.66467998889118 22.34856130119914 H 0.0 **** 0.06
20505 H 40.4549904977668 56.31319888634977 23.40705503674903 H 0.0 **** 0.06
20506 C 7.485634429904369 76.04823233247662 91.79248191401729 C 0.0 **** -0.24
20507 H 6.579859111318919 76.59461784129265 92.05808453182038 H 0.0 **** 0.06
20508 H 8.124723288487953 75.95836156053163 92.67048212554016 H 0.0 **** 0.06
20509 H 8.017572522299828 76.58751747966376 91.00849840432807 H 0.0 **** 0.06
20510 H 7.218555545103223 75.05480839122413 91.43273415404184 H 0.0 **** 0.06
20511 C 6.86414654439568 61.89656521525944 56.39450823731453 C 0.0 **** -0.24
20512 H 6.4203742977310725 62.353248793367584 55.510563119377416 H 0.0 **** 0.06
20513 H 6.100320923831731 61.77600127740473 57.16373354175381 H 0.0 **** 0.06
20514 H 7.662625034616596 62.53556589228856 56.77111804626923 H 0.0 **** 0.06
20515 H 7.273511403240121 60.920242357965435 56.131915577824785 H 0.0 **** 0.06
20516 C 9.95739920216026 99.99441669594584 10.86675555918616 C 0.0 **** -0.24
20517 H 9.526445126948389 100.94473045632117 11.181384004997298 H 0.0 **** 0.06
20518 H 10.784029595610221 100.17956959157071 10.180925899159009 H 0.0 **** 0.06
20519 H 9.194252106340414 99.39904758115266 10.364014139861197 H 0.0 **** 0.06
20520 H 10.322892731086043 99.454043643376 11.740576610034864 H 0.0 **** 0.06
20521 C 37.2296515040349 35.58805770721111 73.60771517695395 C 0.0 **** -0.24
20522 H 38.04573580550321 34.89792591258387 73.8211167615474 H 0.0 **** 0.06
20523 H 36.482897928917296 35.52354603807433 74.39927634825634 H 0.0 **** 0.06
20524 H 36.771862096738865 35.32389278811158 72.65364675110838 H 0.0 **** 0.06
20525 H 37.61767871479743 36.60465520405444 73.55460131558792 H 0.0 **** 0.06
20526 C 63.854675000620475 51.63356159054831 85.79452483117063 C 0.0 **** -0.24
20527 H 64.67514813896673 51.34287049272726 86.45059132672947 H 0.0 **** 0.06
20528 H 63.18993513049254 50.7814993081702 85.64587894852144 H 0.0 **** 0.06
20529 H 64.25560359766926 51.954159299839034 84.83298798866008 H 0.0 **** 0.06
20530 H 63.29872168210923 52.45339678818948 86.2489782061059 H 0.0 **** 0.06
20531 C 36.31489616085581 70.07153615284852 73.43032182110062 C 0.0 **** -0.24
20532 H 36.65941329612569 70.6190486190315 74.30753488970839 H 0.0 **** 0.06
20533 H 35.24404639370995 70.23096222117675 73.30032996157007 H 0.0 **** 0.06
20534 H 36.51022339867726 69.00753304517792 73.56650707717102 H 0.0 **** 0.06
20535 H 36.84526975385854 70.42834734124335 72.54815500273645 H 0.0 **** 0.06
20536 C 42.892697853229606 99.98678521471365 75.37427958114085 C 0.0 **** -0.24
20537 H 43.59431659815647 100.65914267285055 75.86842059083676 H 0.0 **** 0.06
20538 H 43.43627377469937 99.13776434588485 74.95843998399903 H 0.0 **** 0.06
20539 H 42.38190794747959 100.52009401722631 74.57328703101149 H 0.0 **** 0.06
20540 H 42.160931034079965 99.62966411276182 76.0986486541446 H 0.0 **** 0.06
20541 C 6.489332985918622 98.38230613501011 58.3502646601019 C 0.0 **** -0.24
20542 H 7.074848948264275 99.23119508874125 58.70566924205751 H 0.0 **** 0.06
20543 H 5.64361257063382 98.74468462408254 57.76613836842415 H 0.0 **** 0.06
20544 H 6.1256618802871685 97.80990170907329 59.20347578305315 H 0.0 **** 0.06
20545 H 7.117287646721309 97.74551854831766 57.72600884995738 H 0.0 **** 0.06
20546 C 17.356839738125018 83.26075570420926 95.1633834612075 C 0.0 **** -0.24
20547 H 16.42402675043735 82.92164095679095 94.71252775777762 H 0.0 **** 0.06
20548 H 17.617590576818515 82.60521735234158 95.99531452086711 H 0.0 **** 0.06
20549 H 17.233289325242083 84.2805092810654 95.52933389361965 H 0.0 **** 0.06
20550 H 18.150764858871582 83.23595421798564 94.41779412583386 H 0.0 **** 0.06
20551 C 17.310453543179648 103.49680098196461 20.36344379009998 C 0.0 **** -0.24
20552 H 16.870156232588386 102.585954803998 19.95886721637258 H 0.0 **** 0.06
20553 H 17.121035925958896 104.32543270057757 19.68082369667792 H 0.0 **** 0.06
20554 H 18.386114557969993 103.36038191999285 20.478769396632188 H 0.0 **** 0.06
20555 H 16.866586665543 103.7153774022509 21.334021046385317 H 0.0 **** 0.06
20556 C 45.83259172833664 1.828832958099838 55.209646476000614 C 0.0 **** -0.24
20557 H 44.85492697446688 1.7787197804608326 55.687619241595314 H 0.0 **** 0.06
20558 H 45.724402675402644 2.2360436164003517 54.20419614996035 H 0.0 **** 0.06
20559 H 46.260408989091275 0.8285143803215647 55.1523332299131 H 0.0 **** 0.06
20560 H 46.490203726873915 2.472611684706095 55.79320890583347 H 0.0 **** 0.06
20561 C 93.74642693519871 72.78412096699321 106.76990967091564 C 0.0 **** -0.24
20562 H 93.17131342198975 73.60619625807539 106.34235679937751 H 0.0 **** 0.06
20563 H 94.74346185386213 72.77144782070701 106.32840480393466 H 0.0 **** 0.06
20564 H 93.24259340827587 71.84074189919207 106.55905794143817 H 0.0 **** 0.06
20565 H 93.82760694852095 72.91982157873514 107.84747534555575 H 0.0 **** 0.06
20566 C 73.23785419686345 90.70508428209399 17.765964209125485 C 0.0 **** -0.24
20567 H 74.12389693119383 90.18897883686003 17.396889485646938 H 0.0 **** 0.06
20568 H 72.9129152730714 91.4405270082029 17.029064966659973 H 0.0 **** 0.06
20569 H 73.47667376011611 91.21004163161172 18.70222701860297 H 0.0 **** 0.06
20570 H 72.44021491780929 89.98241676171767 17.935306819195176 H 0.0 **** 0.06
20571 C 1.203027208117419 0.8424897341109414 50.6465761283624 C 0.0 **** -0.24
20572 H 1.0849882960198443 0.6353673430318736 51.71085096743415 H 0.0 **** 0.06
20573 H 1.5844587020028342 -0.046632876190216166 50.143877647268624 H 0.0 **** 0.06
20574 H 1.9052031202272985 1.665633646663835 50.51290175261542 H 0.0 **** 0.06
20575 H 0.2374048380945908 1.1153748616108743 50.220899165110225 H 0.0 **** 0.06
20576 C 15.56281276424096 75.08014256231226 61.284893160145586 C 0.0 **** -0.24
20577 H 16.617044668755497 75.33862033690801 61.17936057662844 H 0.0 **** 0.06
20578 H 15.146928167536686 75.60064354912643 62.148332516675794 H 0.0 **** 0.06
20579 H 15.465293159589294 74.0039540921188 61.427378351110576 H 0.0 **** 0.06
20580 H 15.023532305227036 75.37828170356839 60.38582121216099 H 0.0 **** 0.06
20581 C 35.66609962950412 10.974168526734786 15.053918673525459 C 0.0 **** -0.24
20582 H 34.80998499954262 11.640333520733975 14.947388534040442 H 0.0 **** 0.06
20583 H 36.579010547238795 11.565441049677418 15.125753171212025 H 0.0 **** 0.06
20584 H 35.72517271314837 10.315923905129267 14.187169507364146 H 0.0 **** 0.06
20585 H 35.54925176365586 10.375119837368075 15.957604475673278 H 0.0 **** 0.06
20586 C 27.842746807007956 8.08590373112037 10.570935305581884 C 0.0 **** -0.24
20587 H 28.62878305263351 8.354711554238813 9.864526671771955 H 0.0 **** 0.06
20588 H 28.191428737238 8.264632051756294 11.58808614569 H 0.0 **** 0.06
20589 H 27.5936178989173 7.030953329901589 10.452089941575366 H 0.0 **** 0.06
20590 H 26.95805730037077 8.691819880467095 10.377643345600688 H 0.0 **** 0.06
20591 C 32.817798639362024 97.33898013935476 28.71773779426826 C 0.0 **** -0.24
20592 H 32.66387779897843 96.60273186802615 29.506971990724878 H 0.0 **** 0.06
20593 H 33.0678149277534 98.30183596727466 29.16355194208512 H 0.0 **** 0.06
20594 H 31.904265706025456 97.43638101310324 28.13015253170974 H 0.0 **** 0.06
20595 H 33.63256923721059 97.01410565013921 28.071341532916392 H 0.0 **** 0.06
20596 C 21.637363238505543 26.342311723370926 102.76472025064808 C 0.0 **** -0.24
20597 H 20.792134900742212 25.800546343076007 103.18872147846295 H 0.0 **** 0.06
20598 H 22.076872456302794 25.755928770876608 101.95756634165447 H 0.0 **** 0.06
20599 H 22.3849670683731 26.511505154460508 103.53936003996984 H 0.0 **** 0.06
20600 H 21.296066861424606 27.3007763541529 102.37387622041449 H 0.0 **** 0.06
20601 C 58.869143586679115 96.70629966227183 54.87221121640991 C 0.0 **** -0.24
20602 H 58.273085195736655 95.82479559307933 55.1076548096259 H 0.0 **** 0.06
20603 H 58.84691608684989 97.39646993807835 55.71590410353795 H 0.0 **** 0.06
20604 H 58.45827275007338 97.19692415147725 53.98973486685918 H 0.0 **** 0.06
20605 H 59.89892834615921 96.40657030502047 54.674908277633165 H 0.0 **** 0.06
20606 C 33.28563989933292 60.21810569711663 88.32358655832135 C 0.0 **** -0.24
20607 H 32.984713523343004 61.17950926530945 88.74090570794968 H 0.0 **** 0.06
20608 H 33.809483633117964 59.63961297268722 89.08428598871306 H 0.0 **** 0.06
20609 H 33.94462622561281 60.38258638289658 87.47167059647869 H 0.0 **** 0.06
20610 H 32.400103642506735 59.67160899902602 87.99755024070706 H 0.0 **** 0.06
20611 C 3.847685049039768 9.88759368951149 19.80278792137363 C 0.0 **** -0.24
20612 H 3.8317342721522607 10.97532814415591 19.735586341444773 H 0.0 **** 0.06
20613 H 3.2695562569664673 9.569393140510911 20.671305812904706 H 0.0 **** 0.06
20614 H 4.877070099691224 9.545247647537437 19.90531254658596 H 0.0 **** 0.06
20615 H 3.4108521638418097 9.461816981044521 18.899769134731496 H 0.0 **** 0.06
20616 C 100.58191298820623 96.61973885520453 89.61740812641062 C 0.0 **** -0.24
20617 H 101.15360161337242 95.947454337774 88.97870686099446 H 0.0 **** 0.06
20618 H 99.52268961341805 96.36947129166354 89.5509418482136 H 0.0 **** 0.06
20619 H 100.73307888341078 97.64882837744948 89.28974913272594 H 0.0 **** 0.06
20620 H 100.91675689358092 96.51400767913545 90.64849547754739 H 0.0 **** 0.06
20621 C 17.80306637131288 82.70785527952252 73.60595181199756 C 0.0 **** -0.24
20622 H 17.904892190720176 82.5604838855738 72.53002570531703 H 0.0 **** 0.06
20623 H 18.765760223129348 82.53817916794053 74.08864148410026 H 0.0 **** 0.06
20624 H 17.068803038886983 82.0047404385217 74.0003357093965 H 0.0 **** 0.06
20625 H 17.471810357855816 83.72771371801971 73.8028273459216 H 0.0 **** 0.06
20626 C 64.25854114379257 8.328171734514825 27.39600488279916 C 0.0 **** -0.24
20627 H 65.28174414878396 8.670216333430517 27.559791233152254 H 0.0 **** 0.06
20628 H 64.27026248395788 7.4402757596084825 26.764254097492085 H 0.0 **** 0.06
20629 H 63.68720100511587 9.11730160230772 26.906620313017086 H 0.0 **** 0.06
20630 H 63.798694994826576 8.087367978773074 28.354733638801378 H 0.0 **** 0.06
20631 C 44.95209131466153 41.23437815285399 16.8636303929528 C 0.0 **** -0.24
20632 H 44.52971826536081 41.27027742745153 15.859784814461815 H 0.0 **** 0.06
20633 H 45.381521030225834 42.20572384258912 17.11256309884798 H 0.0 **** 0.06
20634 H 45.730397564734105 40.47263866709187 16.903543341784477 H 0.0 **** 0.06
20635 H 44.16688107541542 40.989620146781306 17.57982114631311 H 0.0 **** 0.06
20636 C 32.215638471574266 9.74851299241312 34.60014084479869 C 0.0 **** -0.24
20637 H 31.201732320346665 9.949083112817137 34.25273371119743 H 0.0 **** 0.06
20638 H 32.3534031778602 8.67359849155033 34.71523824468637 H 0.0 **** 0.06
20639 H 32.374451509911665 10.241026119519873 35.559351957595794 H 0.0 **** 0.06
20640 H 32.93075037925933 10.131606647161549 33.87166024826563 H 0.0 **** 0.06
20641 C 104.78616439677785 84.63046473238414 7.248372814517495 C 0.0 **** -0.24
20642 H 104.74107037105875 84.47445277258622 6.170400391924673 H 0.0 **** 0.06
20643 H 105.82618105736611 84.74918336313871 7.554901840785206 H 0.0 **** 0.06
20644 H 104.3515530851007 83.77139910318377 7.759408019777467 H 0.0 **** 0.06
20645 H 104.22564076204878 85.52904872328035 7.508714636213725 H 0.0 **** 0.06
20646 C 91.4482411353672 103.11541958070842 107.5610550855503 C 0.0 **** -0.24
20647 H 91.411872667936 102.816397591282 106.51394292830311 H 0.0 **** 0.06
20648 H 91.14217699413231 104.15746660049933 107.65227169298188 H 0.0 **** 0.06
20649 H 92.46448409843913 103.00012825307033 107.9368699869903 H 0.0 **** 0.06
20650 H 90.77311644207987 102.48599497435717 108.1417788588148 H 0.0 **** 0.06
20651 C 38.067805275321916 19.366203858328422 46.93957978844086 C 0.0 **** -0.24
20652 H 38.818306533830224 18.61119312589783 47.17311859284416 H 0.0 **** 0.06
20653 H 37.164928221650854 18.87892924255102 46.57113953535651 H 0.0 **** 0.06
20654 H 38.45600797159028 20.03813202806776 46.17390626120479 H 0.0 **** 0.06
20655 H 37.83372976477742 19.935908779019083 47.838571257945944 H 0.0 **** 0.06
20656 C 94.78745800547424 97.14994023041781 78.9059574818125 C 0.0 **** -0.24
20657 H 94.14773816298629 97.93142998447917 78.49584405587353 H 0.0 **** 0.06
20658 H 94.22060598947857 96.22169153031976 78.98366153494439 H 0.0 **** 0.06
20659 H 95.13481544294496 97.44794275709951 79.8952724173862 H 0.0 **** 0.06
20660 H 95.64390215517403 96.99984136247903 78.24892669058113 H 0.0 **** 0.06
20661 C 37.002709883328066 67.21061258779855 23.15023875367595 C 0.0 **** -0.24
20662 H 36.53480664787878 68.19469263920998 23.167951016169923 H 0.0 **** 0.06
20663 H 36.45371683765012 66.55897859783703 22.469549710266605 H 0.0 **** 0.06
20664 H 36.98906328632734 66.7836525199927 24.15342449963505 H 0.0 **** 0.06
20665 H 38.034888561579294 67.30481553567928 22.8105068121271 H 0.0 **** 0.06
20666 C 49.57317476178355 72.44770291035252 43.071950696768994 C 0.0 **** -0.24
20667 H 50.654803392724205 72.53034892038139 43.17435103861553 H 0.0 **** 0.06
20668 H 49.314695644096304 72.34586521565815 42.01738376132391 H 0.0 **** 0.06
20669 H 49.09988756601109 73.34241465603127 43.4771221209412 H 0.0 **** 0.06
20670 H 49.222662447838616 71.57186419354558 43.61825592898151 H 0.0 **** 0.06
20671 C 41.520625346052185 94.5851466282695 20.19737392619595 C 0.0 **** -0.24
20672 H 40.502648690841454 94.69182425891805 19.82109716425566 H 0.0 **** 0.06
20673 H 41.71531024329485 93.5365836707025 20.42537899291932 H 0.0 **** 0.06
20674 H 41.6371442757264 95.18101849148321 21.102804658305274 H 0.0 **** 0.06
20675 H 42.22541428705509 94.93089304189955 19.44121144680895 H 0.0 **** 0.06
20676 C 57.6173554255191 10.444747126353349 26.46619040864175 C 0.0 **** -0.24
20677 H 57.97589845867303 10.993933239232263 27.3369540119932 H 0.0 **** 0.06
20678 H 56.92166126947692 11.069105329405431 25.905066326077517 H 0.0 **** 0.06
20679 H 57.111090482626665 9.536681750186773 26.79188928012499 H 0.0 **** 0.06
20680 H 58.463244131579486 10.180478981545718 25.831500420442595 H 0.0 **** 0.06
20681 C 39.27012543204747 20.44095188919631 95.97007168716965 C 0.0 **** -0.24
20682 H 39.19532974805174 19.872478344081912 95.04272428868316 H 0.0 **** 0.06
20683 H 39.04755263346587 19.788097972584477 96.81459397138303 H 0.0 **** 0.06
20684 H 38.55764570681065 21.264739283998157 95.94889078425618 H 0.0 **** 0.06
20685 H 40.2810826238974 20.835886555109134 96.07184550956515 H 0.0 **** 0.06
20686 C 74.02982176026131 44.49099784064463 93.1138932441034 C 0.0 **** -0.24
20687 H 74.8337674169664 44.14663363117049 92.46488992789926 H 0.0 **** 0.06
20688 H 74.28071542804497 45.47443504683458 93.51270198665131 H 0.0 **** 0.06
20689 H 73.89939010777266 43.78729723730208 93.93616679265425 H 0.0 **** 0.06
20690 H 73.10420071702566 44.55681997393964 92.54213205391125 H 0.0 **** 0.06
20691 C 38.39366840840928 39.317798771505515 105.16184722381806 C 0.0 **** -0.24
20692 H 38.946763077854 40.14116140212367 104.71005746138795 H 0.0 **** 0.06
20693 H 37.59823837134711 39.00119897973281 104.4873063784342 H 0.0 **** 0.06
20694 H 37.960133539118004 39.64706069295833 106.10710111821629 H 0.0 **** 0.06
20695 H 39.070546415164486 38.48286259645354 105.34487321498762 H 0.0 **** 0.06
20696 C 9.125316929019121 40.852815494518666 105.64430100805889 C 0.0 **** -0.24
20697 H 8.534347810794754 39.952150330088216 105.47365937191614 H 0.0 **** 0.06
20698 H 9.429534054490743 41.27309733521025 104.6852953325473 H 0.0 **** 0.06
20699 H 10.00983842070382 40.60201317400879 106.22928701447138 H 0.0 **** 0.06
20700 H 8.524810553505844 41.58253312215527 106.18713062353082 H 0.0 **** 0.06
20701 C 93.0961312385846 81.61969628483929 14.435830877254773 C 0.0 **** -0.24
20702 H 93.9158041477699 81.5142125259998 13.724576162593564 H 0.0 **** 0.06
20703 H 92.74376055489273 82.65117158849839 14.433314627340451 H 0.0 **** 0.06
20704 H 93.44717983857083 81.3577328427732 15.434091755703719 H 0.0 **** 0.06
20705 H 92.28018831223827 80.95572471329915 14.15089472616856 H 0.0 **** 0.06
20706 C 62.55179448224126 102.91817310784344 74.68485933973002 C 0.0 **** -0.24
20707 H 63.19183328579018 102.04150574104102 74.77940742834718 H 0.0 **** 0.06
20708 H 61.51951067276529 102.6379826883483 74.8963711244362 H 0.0 **** 0.06
20709 H 62.622114335483346 103.31162995298587 73.6711470906227 H 0.0 **** 0.06
20710 H 62.873933563969814 103.68160851706682 75.3934879821756 H 0.0 **** 0.06
20711 C 84.97879309906114 95.32096027801913 84.38536315258848 C 0.0 **** -0.24
20712 H 85.70413331482331 94.95663037084438 85.11270558282285 H 0.0 **** 0.06
20713 H 84.77743927859416 94.5402705901758 83.6509422603332 H 0.0 **** 0.06
20714 H 85.38131662122926 96.19945077478741 83.88042352772325 H 0.0 **** 0.06
20715 H 84.0539241376006 95.58727779637064 84.89625754091524 H 0.0 **** 0.06
20716 C 12.395429746218241 85.99481922828207 107.4837960923323 C 0.0 **** -0.24
20717 H 13.449644848538384 85.85136966590127 107.24952827799736 H 0.0 **** 0.06
20718 H 12.041913343484396 86.91547296943646 107.01900409677836 H 0.0 **** 0.06
20719 H 12.2691890483392 86.06028553602209 108.56400816834338 H 0.0 **** 0.06
20720 H 11.819801427402354 85.15090565256656 107.10235187084825 H 0.0 **** 0.06
20721 C 30.081651809000732 30.676402181061704 107.67541019641743 C 0.0 **** -0.24
20722 H 29.22044628781208 30.860337840721797 108.31804343114811 H 0.0 **** 0.06
20723 H 29.973961172062218 29.706299400913096 107.19156622461713 H 0.0 **** 0.06
20724 H 30.991442380239505 30.685140416681918 108.27661860374019 H 0.0 **** 0.06
20725 H 30.140482349462417 31.457149109824158 106.91636936340677 H 0.0 **** 0.06
20726 C 23.811827991149556 77.15199627418333 42.85738609050706 C 0.0 **** -0.24
20727 H 23.645886143882535 78.2107723712825 43.05602698824543 H 0.0 **** 0.06
20728 H 24.70431924965689 77.03338441025446 42.24310252119437 H 0.0 **** 0.06
20729 H 22.950397334424437 76.74233003095144 42.3298640265856 H 0.0 **** 0.06
20730 H 23.946121082816035 76.62230410354454 43.80048168397665 H 0.0 **** 0.06
20731 C 22.367079086625978 52.70184476111939 92.70565863949167 C 0.0 **** -0.24
20732 H 23.26354133622843 53.319255015003364 92.64633951861057 H 0.0 **** 0.06
20733 H 22.067443078614275 52.59575943792987 93.748802423014 H 0.0 **** 0.06
20734 H 22.575081980879304 51.71850923519196 92.284887051819 H 0.0 **** 0.06
20735 H 21.562724250708243 53.17503461371041 92.14198549015825 H 0.0 **** 0.06
20736 C 47.87584253679989 78.95308800645142 73.51765936045169 C 0.0 **** -0.24
20737 H 47.839463793415376 79.82663308794574 72.86672594586409 H 0.0 **** 0.06
20738 H 46.88031236240543 78.7550629123997 73.91438526687273 H 0.0 **** 0.06
20739 H 48.5650182873069 79.14260659426918 74.34109622087826 H 0.0 **** 0.06
20740 H 48.21863778524045 78.08888456631291 72.94788343199923 H 0.0 **** 0.06
20741 C 59.50655974621087 48.55177462252979 10.703822454030501 C 0.0 **** -0.24
20742 H 60.06348972902231 48.8342938770725 11.59666205272094 H 0.0 **** 0.06
20743 H 58.902496573898276 49.39645490066795 10.370627753616262 H 0.0 **** 0.06
20744 H 58.85515268834472 47.70822602010699 10.934552565516078 H 0.0 **** 0.06
20745 H 60.203259305752766 48.26830502257204 9.91580952812581 H 0.0 **** 0.06
20746 C 82.84093520233981 43.87983133378893 25.52300337516408 C 0.0 **** -0.24
20747 H 83.66545089201614 44.31295193715169 24.955477849126964 H 0.0 **** 0.06
20748 H 82.67211056203233 44.469405610672794 26.423502175329702 H 0.0 **** 0.06
20749 H 83.09067852725187 42.85508694627644 25.799081214425513 H 0.0 **** 0.06
20750 H 81.93883004326668 43.88119941798668 24.911222253720183 H 0.0 **** 0.06
20751 C 42.41978821442052 64.96854415301577 28.940614094099864 C 0.0 **** -0.24
20752 H 43.41598289460592 64.818713140924 29.356358653135835 H 0.0 **** 0.06
20753 H 42.39992232436458 65.89685812676373 28.369408998583502 H 0.0 **** 0.06
20754 H 41.69188347514199 65.02412500619208 29.749946648492404 H 0.0 **** 0.06
20755 H 42.17028050002517 64.13347257346408 28.28479005537349 H 0.0 **** 0.06
20756 C 99.90685239480813 36.58944333705091 52.19588902854949 C 0.0 **** -0.24
20757 H 99.62932229857988 36.44325511201737 53.239875518092504 H 0.0 **** 0.06
20758 H 100.9116021353446 37.009160589843475 52.14278405132882 H 0.0 **** 0.06
20759 H 99.20116350315334 37.274094545084665 51.724824626765894 H 0.0 **** 0.06
20760 H 99.88462123411763 35.63083157851315 51.67664048373271 H 0.0 **** 0.06
20761 C 37.04467363087444 8.502933768473625 50.34098269447327 C 0.0 **** -0.24
20762 H 37.964328809382586 8.982713630073619 50.00571805033067 H 0.0 **** 0.06
20763 H 37.25450824924579 7.468578416707743 50.61463065499202 H 0.0 **** 0.06
20764 H 36.30990592124516 8.524634750026621 49.53714805243695 H 0.0 **** 0.06
20765 H 36.65223698103851 9.035784751963234 51.20731522615864 H 0.0 **** 0.06
20766 C 94.05347056236101 97.13968586056292 101.66551819149414 C 0.0 **** -0.24
20767 H 94.80087854219624 96.93659267281002 100.89807878863299 H 0.0 **** 0.06
20768 H 94.5353144624076 97.599654563169 102.52799193336583 H 0.0 **** 0.06
20769 H 93.58113924576531 96.20459078763585 101.96758125754684 H 0.0 **** 0.06
20770 H 93.2973592143945 97.81558546857062 101.26578191245424 H 0.0 **** 0.06
20771 C 60.090206237747566 79.1869746272946 25.021277565527527 C 0.0 **** -0.24
20772 H 59.07043997334972 78.91570565408354 25.292154993022045 H 0.0 **** 0.06
20773 H 60.09582930788079 80.18630308360723 24.58394377750809 H 0.0 **** 0.06
20774 H 60.47603247556913 78.4712185095041 24.295500039870763 H 0.0 **** 0.06
20775 H 60.71784222328773 79.17633662111467 25.912183630568954 H 0.0 **** 0.06
20776 C 33.62981589994618 29.330789224056048 44.412735467097264 C 0.0 **** -0.24
20777 H 34.51847449183771 28.69908952677133 44.39753099738644 H 0.0 **** 0.06
20778 H 32.75149383045502 28.715466360530343 44.60647194449572 H 0.0 **** 0.06
20779 H 33.520452964985054 29.82645739416074 43.447502538377535 H 0.0 **** 0.06
20780 H 33.729775241406344 30.080554178869647 45.197069155628895 H 0.0 **** 0.06
20781 C 109.23359211032921 87.09937724067544 10.374718866127372 C 0.0 **** -0.24
20782 H 109.40612618714587 87.16197570811912 11.449271409479277 H 0.0 **** 0.06
20783 H 109.10805157359201 86.05537203779375 10.088345993146339 H 0.0 **** 0.06
20784 H 110.0865984149053 87.52341357902878 9.845017860626832 H 0.0 **** 0.06
20785 H 108.33279283173056 87.65802692258802 10.11919399352328 H 0.0 **** 0.06
20786 C 45.97864544380707 31.41749369833076 20.261994046173562 C 0.0 **** -0.24
20787 H 46.34338842819017 30.652410605429793 19.575521741509743 H 0.0 **** 0.06
20788 H 46.58874742659586 32.314837807099536 20.162496231917892 H 0.0 **** 0.06
20789 H 46.04087255748789 31.046302083675755 21.285365604143347 H 0.0 **** 0.06
20790 H 44.94188830447669 31.65408321559812 20.023944185331548 H 0.0 **** 0.06
20791 C 74.57160286584994 0.3159810753815435 5.593082108527909 C 0.0 **** -0.24
20792 H 75.52685376075283 0.8356772541004318 5.67076330026967 H 0.0 **** 0.06
20793 H 74.64950997499749 -0.4775094430239051 4.849224556644856 H 0.0 **** 0.06
20794 H 73.79747896122005 1.0218589633663981 5.2934935937252305 H 0.0 **** 0.06
20795 H 74.31443375169962 -0.11640000030720898 6.560406986375455 H 0.0 **** 0.06
20796 C 38.76094656696934 45.029368619312976 45.095694496574595 C 0.0 **** -0.24
20797 H 38.437218207980365 45.963312094204014 45.555908908068346 H 0.0 **** 0.06
20798 H 39.76752104940025 44.78691912249667 45.43706790659763 H 0.0 **** 0.06
20799 H 38.761140827840734 45.140453938664706 44.01160330101436 H 0.0 **** 0.06
20800 H 38.0779492081645 44.22883130597174 45.37910820088109 H 0.0 **** 0.06
20801 C 98.92820664770436 41.953980766513325 0.06585472546436666 C 0.0 **** -0.24
20802 H 98.58933787431478 41.1621801153492 -0.6025803419254423 H 0.0 **** 0.06
20803 H 98.72821039490374 41.66709974465647 1.0984231395505697 H 0.0 **** 0.06
20804 H 98.39572413055471 42.87750052291965 -0.16505314102745938 H 0.0 **** 0.06
20805 H 99.9988987848834 42.10893817413043 -0.06809785109689592 H 0.0 **** 0.06
20806 C 1.197125865500766 7.056039497011909 76.60951023275993 C 0.0 **** -0.24
20807 H 0.14499283448259348 7.325901690610294 76.69915508972696 H 0.0 **** 0.06
20808 H 1.663563235547258 7.667667736621752 75.83644822541066 H 0.0 **** 0.06
20809 H 1.2804823336177833 6.002896739158189 76.34099065150986 H 0.0 **** 0.06
20810 H 1.6989030016083575 7.22932676858548 77.5615527546887 H 0.0 **** 0.06
20811 C 98.28858053595404 85.26267550166668 17.31661785717455 C 0.0 **** -0.24
20812 H 97.68822552245246 85.92539861847528 17.93959589952634 H 0.0 **** 0.06
20813 H 98.25843627599765 84.25318927279932 17.725914300532082 H 0.0 **** 0.06
20814 H 99.31981967398836 85.61744267651466 17.298290243836348 H 0.0 **** 0.06
20815 H 97.88957214068945 85.25601089151651 16.302214769901013 H 0.0 **** 0.06
20816 C 19.74719649352189 67.03683152485334 105.1578053000116 C 0.0 **** -0.24
20817 H 19.7098198066631 68.05410178055371 104.76842896634238 H 0.0 **** 0.06
20818 H 18.737724493414543 66.62877775021599 105.20688810918392 H 0.0 **** 0.06
20819 H 20.184783622884762 67.04626486142854 106.15655266380782 H 0.0 **** 0.06
20820 H 20.35838140684728 66.4190831579561 104.50005027450385 H 0.0 **** 0.06
20821 C 88.94938695346866 50.26422295685572 61.824314261067 C 0.0 **** -0.24
20822 H 88.92342265579788 51.00238506307158 62.6259795890702 H 0.0 **** 0.06
20823 H 89.15214954705277 50.76380726390403 60.87632446845629 H 0.0 **** 0.06
20824 H 87.98751331783154 49.754275784989744 61.7685134031974 H 0.0 **** 0.06
20825 H 89.73543057871859 49.536180183867636 62.02638331826398 H 0.0 **** 0.06
20826 C 49.1594299515606 97.30709416037845 3.2051303810983818 C 0.0 **** -0.24
20827 H 49.06098013939052 97.75712259047427 2.2172377853438014 H 0.0 **** 0.06
20828 H 48.32379781125545 97.62082074170172 3.831177757184367 H 0.0 **** 0.06
20829 H 50.09524689307 97.63070438437322 3.659974056824968 H 0.0 **** 0.06
20830 H 49.15681400830558 96.22141474813276 3.111513765662359 H 0.0 **** 0.06
20831 C 8.812561852494937 83.52971858924417 50.50394326905027 C 0.0 **** -0.24
20832 H 7.978850522420828 83.29480410895172 49.84285681765017 H 0.0 **** 0.06
20833 H 8.837913726144734 84.60444123066563 50.688557302430624 H 0.0 **** 0.06
20834 H 9.74653463739429 83.21911272827805 50.03496075411204 H 0.0 **** 0.06
20835 H 8.687703448579214 83.00116435689984 51.449297468247266 H 0.0 **** 0.06
20836 C 10.143238256978776 71.59558131152295 12.697808845722477 C 0.0 **** -0.24
20837 H 10.11935792279732 70.72757376622843 12.03939686744991 H 0.0 **** 0.06
20838 H 9.217648923992414 72.16126516692265 12.585030474274674 H 0.0 **** 0.06
20839 H 10.990368653137352 72.22767266917049 12.435009977254765 H 0.0 **** 0.06
20840 H 10.24275137852959 71.26484324593366 13.731530370476776 H 0.0 **** 0.06
20841 C 82.18512346540325 86.53796244515664 96.6686597062628 C 0.0 **** -0.24
20842 H 82.78519807912505 86.10117116518418 95.87049897110008 H 0.0 **** 0.06
20843 H 81.80855250760195 87.50996420278236 96.34945499465294 H 0.0 **** 0.06
20844 H 82.80143373139688 86.6616398626453 97.55949881390393 H 0.0 **** 0.06
20845 H 81.34754226293234 85.87919701717226 96.89517131203435 H 0.0 **** 0.06
20846 C 80.955294089652 63.270311482841805 49.47536679352032 C 0.0 **** -0.24
20847 H 80.26472412732058 62.47259677310015 49.201735470140136 H 0.0 **** 0.06
20848 H 81.98020622493742 62.9202218130409 49.353637356193786 H 0.0 **** 0.06
20849 H 80.78888076301632 63.55457484929909 50.51371240192992 H 0.0 **** 0.06
20850 H 80.78701798643543 64.13304858443696 48.830094274374915 H 0.0 **** 0.06
20851 C 95.68179453247858 3.4824845714859425 27.200514183566327 C 0.0 **** -0.24
20852 H 96.42420599230928 3.7058010693039254 26.433825370671826 H 0.0 **** 0.06
20853 H 94.77787805321522 4.060251239030183 27.009835488650282 H 0.0 **** 0.06
20854 H 96.08121484020911 3.7433752277790084 28.180163700157152 H 0.0 **** 0.06
20855 H 95.44466291551464 2.418095627525373 27.176985801764005 H 0.0 **** 0.06
20856 C 109.94048924063958 32.232507036514676 9.464416425468357 C 0.0 **** -0.24
20857 H 110.7199394619588 31.54562478039486 9.794058422236787 H 0.0 **** 0.06
20858 H 110.24357145277148 32.703432634340174 8.529071566201424 H 0.0 **** 0.06
20859 H 109.78607093859732 32.99836115083099 10.224374441329644 H 0.0 **** 0.06
20860 H 109.01289780218733 31.681395847418344 9.309657541371962 H 0.0 **** 0.06
20861 C 21.56305664488721 33.991317566127094 73.21244006811364 C 0.0 **** -0.24
20862 H 20.536659392124164 34.31330906803444 73.38686443115475 H 0.0 **** 0.06
20863 H 21.574350794625275 33.20888627367174 72.45368487492308 H 0.0 **** 0.06
20864 H 21.984777952298657 33.60358336664845 74.14013619110807 H 0.0 **** 0.06
20865 H 22.15642706944024 34.83973422829604 72.87004484289892 H 0.0 **** 0.06
20866 C 8.378254857801423 108.34531459115726 64.24592370973062 C 0.0 **** -0.24
20867 H 7.69364518261788 109.06261572837036 63.7943272580942 H 0.0 **** 0.06
20868 H 9.308955719766654 108.84768121564234 64.5117346739529 H 0.0 **** 0.06
20869 H 8.58675748551796 107.54511504665054 63.53678831874055 H 0.0 **** 0.06
20870 H 7.923270366487738 107.92542198131906 65.14322525278425 H 0.0 **** 0.06
20871 C 6.383146580052994 31.319884861494558 41.83364826194807 C 0.0 **** -0.24
20872 H 6.46541220794569 32.27685918687604 42.35037576540822 H 0.0 **** 0.06
20873 H 7.3145135873173786 31.11057925680339 41.30647424242039 H 0.0 **** 0.06
20874 H 5.561388385688133 31.3636052520458 41.11822337008496 H 0.0 **** 0.06
20875 H 6.191165957188446 30.53066422266511 42.56005511749726 H 0.0 **** 0.06
20876 C 29.88603662790092 23.351558347274334 64.24473901061066 C 0.0 **** -0.24
20877 H 30.451499550392185 23.233692474770976 65.16980771943173 H 0.0 **** 0.06
20878 H 30.03358882553512 22.47540701335265 63.614025227592535 H 0.0 **** 0.06
20879 H 30.23201778717123 24.241623408757363 63.71952387487093 H 0.0 **** 0.06
20880 H 28.82630743481144 23.45755508017129 64.47864605521578 H 0.0 **** 0.06
20881 C 43.39191941352561 25.066150957376067 91.30681185040872 C 0.0 **** -0.24
20882 H 43.71101239877402 24.028407855035397 91.41030445607117 H 0.0 **** 0.06
20883 H 42.60980801901189 25.279125933827146 92.03493829109695 H 0.0 **** 0.06
20884 H 43.00632938541344 25.22763398037722 90.30007439503785 H 0.0 **** 0.06
20885 H 44.2416165086114 25.725535303159717 91.48115580922219 H 0.0 **** 0.06
20886 C 47.93654080941362 72.465803273571 73.04547301225028 C 0.0 **** -0.24
20887 H 46.916572719800094 72.82160467635558 72.90092137523078 H 0.0 **** 0.06
20888 H 47.925680809954585 71.39011057678654 73.21743797679704 H 0.0 **** 0.06
20889 H 48.377090727346 72.96811429709855 73.90723410675719 H 0.0 **** 0.06
20890 H 48.52732263099544 72.6857203972996 72.1557640298775 H 0.0 **** 0.06
20891 C 15.493513260839563 84.29172614691686 68.42964500565405 C 0.0 **** -0.24
20892 H 15.969803923255412 84.53091041364542 69.38055974063047 H 0.0 **** 0.06
20893 H 15.493880737100824 83.21103378849656 68.28480833221678 H 0.0 **** 0.06
20894 H 16.043069668200303 84.76802051917775 67.61788386843479 H 0.0 **** 0.06
20895 H 14.46596021603024 84.65734029531791 68.43554757673877 H 0.0 **** 0.06
20896 C 69.0822319630264 87.96382227691063 13.986938413766637 C 0.0 **** -0.24
20897 H 68.06427091002266 87.69576303673128 14.267997516870508 H 0.0 **** 0.06
20898 H 69.78786229280598 87.39169662804125 14.589476230836397 H 0.0 **** 0.06
20899 H 69.23750542876763 89.02939680614975 14.158384755239496 H 0.0 **** 0.06
20900 H 69.23838320323131 87.73885271813262 12.931843050525174 H 0.0 **** 0.06
20901 C 25.312760683235553 20.71329252521588 33.71762757876235 C 0.0 **** -0.24
20902 H 24.247064419622376 20.631109598960347 33.93103837352436 H 0.0 **** 0.06
20903 H 25.850763292585924 20.933830650497164 34.640064516019265 H 0.0 **** 0.06
20904 H 25.478211754381448 21.51582300978754 32.998788584967485 H 0.0 **** 0.06
20905 H 25.67348069869624 19.772773452504687 33.30221497197954 H 0.0 **** 0.06
20906 C 48.610947596852405 74.48634772158111 90.34931199751276 C 0.0 **** -0.24
20907 H 48.226722266862275 75.49961502947204 90.2300894617926 H 0.0 **** 0.06
20908 H 47.98654609954108 73.79285923392787 89.78461623962016 H 0.0 **** 0.06
20909 H 48.596157503360516 74.2136673873269 91.40448658657513 H 0.0 **** 0.06
20910 H 49.63417626729168 74.4399681436954 89.97572159953413 H 0.0 **** 0.06
20911 C 110.09978739296706 37.47088707896664 65.5399404620144 C 0.0 **** -0.24
20912 H 109.45503453845966 38.311578098447306 65.7978806553006 H 0.0 **** 0.06
20913 H 109.76412106687405 37.03155345393933 64.6007930858398 H 0.0 **** 0.06
20914 H 110.05308262009703 36.72143243575025 66.32992914918225 H 0.0 **** 0.06
20915 H 111.12586588019818 37.82119352321074 65.43099538104582 H 0.0 **** 0.06
20916 C 15.187365449703865 32.81917405856424 87.67287016158417 C 0.0 **** -0.24
20917 H 16.078706064882503 32.90464204038784 87.0500829252486 H 0.0 **** 0.06
20918 H 14.584254861055651 33.72117986587435 87.56883229753419 H 0.0 **** 0.06
20919 H 15.483788418632251 32.69869267010762 88.71496344065699 H 0.0 **** 0.06
20920 H 14.605756898103216 31.95290512862715 87.35805855102774 H 0.0 **** 0.06
20921 C 86.46318369086202 74.12685400800905 89.388725367641 C 0.0 **** -0.24
20922 H 85.78842939261995 73.41714581775267 88.90998884642084 H 0.0 **** 0.06
20923 H 85.90391563739001 75.0116656711351 89.69360784213274 H 0.0 **** 0.06
20924 H 87.2448920939745 74.41493037470677 88.6854880419915 H 0.0 **** 0.06
20925 H 86.91615845545186 73.66223021055919 90.26512503293111 H 0.0 **** 0.06
20926 C 50.17715226453845 55.37578101272632 50.457546339914785 C 0.0 **** -0.24
20927 H 50.14831889028716 54.329602214558065 50.15375650170171 H 0.0 **** 0.06
20928 H 50.653924760089865 55.45606341480038 51.43564734320992 H 0.0 **** 0.06
20929 H 49.16067596366378 55.76504603044853 50.5160391689885 H 0.0 **** 0.06
20930 H 50.74588230398706 55.95168422277243 49.72746869463228 H 0.0 **** 0.06
20931 C 64.19956939694306 30.722593208080866 103.07379609322697 C 0.0 **** -0.24
20932 H 64.83400879829402 31.594385561953146 103.2343715597425 H 0.0 **** 0.06
20933 H 63.20042495641589 30.925367637891156 103.46215901172332 H 0.0 **** 0.06
20934 H 64.6246834799699 29.863348280679816 103.59307918740672 H 0.0 **** 0.06
20935 H 64.13837058552521 30.50906920637874 102.00664430440554 H 0.0 **** 0.06
20936 C 48.880560549393266 65.9357568184489 24.992522858260386 C 0.0 **** -0.24
20937 H 47.85271264647443 66.2404608497468 24.792478024628444 H 0.0 **** 0.06
20938 H 49.48899876205798 66.10623121280094 24.10394298523972 H 0.0 **** 0.06
20939 H 48.90117899006614 64.87762028726013 25.251533757457576 H 0.0 **** 0.06
20940 H 49.27655586969366 66.52096699582559 25.822470739809805 H 0.0 **** 0.06
20941 C 24.9254571681498 51.9249215632369 75.76981870855934 C 0.0 **** -0.24
20942 H 25.938140133757887 52.066407348366205 76.14567992086018 H 0.0 **** 0.06
20943 H 24.477483602087354 52.89627847692487 75.55629061226148 H 0.0 **** 0.06
20944 H 24.32896632107985 51.40564664886118 76.51993934270047 H 0.0 **** 0.06
20945 H 24.957044742571252 51.33093546165196 74.85602797504123 H 0.0 **** 0.06
20946 C 21.111172236456497 31.040168736403487 49.51769424019449 C 0.0 **** -0.24
20947 H 21.831893372885816 31.799309059752233 49.82268239954669 H 0.0 **** 0.06
20948 H 20.370657412335476 30.90567598299924 50.30550079982868 H 0.0 **** 0.06
20949 H 21.629288699046242 30.098023877206685 49.34039478217204 H 0.0 **** 0.06
20950 H 20.614828988432123 31.36057180042397 48.6009188814848 H 0.0 **** 0.06
20951 C 109.87199896288207 64.94714628070146 35.66822035865701 C 0.0 **** -0.24
20952 H 109.61867983979953 64.77858648237707 36.715338210250124 H 0.0 **** 0.06
20953 H 109.9801547040749 66.01750255992093 35.48869716324509 H 0.0 **** 0.06
20954 H 109.07856492292431 64.55132201718192 35.03492874596117 H 0.0 **** 0.06
20955 H 110.8093677514469 64.44222939513237 35.435090744396064 H 0.0 **** 0.06
20956 C 14.715450184060877 30.149380473329607 27.745548457030168 C 0.0 **** -0.24
20957 H 15.670230348709552 29.69165338068761 27.488362851937275 H 0.0 **** 0.06
20958 H 13.943850767509666 29.78392251281651 27.0689012190971 H 0.0 **** 0.06
20959 H 14.796365802180837 31.232620998700675 27.6543378903108 H 0.0 **** 0.06
20960 H 14.453179081505528 29.89005656296515 28.77165651752032 H 0.0 **** 0.06
20961 C 101.4699036814097 40.98209876714694 87.54803623986867 C 0.0 **** -0.24
20962 H 102.5497766242534 40.94605123399367 87.4021192589124 H 0.0 **** 0.06
20963 H 101.23486687014548 41.689044514927645 88.34430641198652 H 0.0 **** 0.06
20964 H 101.10736484713478 39.991821738941425 87.82088354828093 H 0.0 **** 0.06
20965 H 100.98943188157577 41.30305938764107 86.62279467473017 H 0.0 **** 0.06
20966 C 59.51469513487352 73.53176053301502 56.5202956384903 C 0.0 **** -0.24
20967 H 59.185915793736086 73.23858157725581 55.52296469667312 H 0.0 **** 0.06
20968 H 60.47678726526496 74.03825858308807 56.45167984065211 H 0.0 **** 0.06
20969 H 59.61415428438531 72.64476235293853 57.14532587663585 H 0.0 **** 0.06
20970 H 58.779501657896574 74.20548598046281 56.960845663601916 H 0.0 **** 0.06
20971 C 53.23141748567353 94.706136440004 12.823984193703335 C 0.0 **** -0.24
20972 H 52.50094980630914 94.0532175420443 13.30067126538992 H 0.0 **** 0.06
20973 H 54.02590811841379 94.10321590138118 12.384065794300646 H 0.0 **** 0.06
20974 H 53.65700333843657 95.38017188683763 13.568129129343813 H 0.0 **** 0.06
20975 H 52.74301903797053 95.28902918422573 12.043662022155008 H 0.0 **** 0.06
20976 C 17.264672201846366 31.39225102921324 45.39937501088458 C 0.0 **** -0.24
20977 H 17.76539965665617 31.410017384054356 44.4317298961187 H 0.0 **** 0.06
20978 H 16.773008975740197 32.34993908442536 45.5703562798953 H 0.0 **** 0.06
20979 H 17.998989711247475 31.215044180599847 46.184758501452116 H 0.0 **** 0.06
20980 H 16.52256584806065 30.594935699766097 45.40942876937388 H 0.0 **** 0.06
20981 C 107.60672150663527 74.36377812572019 33.96865198050088 C 0.0 **** -0.24
20982 H 106.97504778441075 74.06349189397321 33.13222490405494 H 0.0 **** 0.06
20983 H 107.79279533969739 73.50259039763037 34.61073996485783 H 0.0 **** 0.06
20984 H 107.10454461760511 75.14350565457607 34.541015560114374 H 0.0 **** 0.06
20985 H 108.55497140198844 74.7453724228518 33.58822888564913 H 0.0 **** 0.06
20986 C 1.6974180376362824 61.645891834675254 103.74492794471608 C 0.0 **** -0.24
20987 H 1.7111127970305233 62.71463863832996 103.53068400584135 H 0.0 **** 0.06
20988 H 1.4074980802676578 61.10021768353542 102.84745547769512 H 0.0 **** 0.06
20989 H 0.9811329357499403 61.44465726267414 104.54168201305701 H 0.0 **** 0.06
20990 H 2.6906835144147294 61.32604126942685 104.06058291657683 H 0.0 **** 0.06
20991 C 6.409793189244368 39.859152278834465 51.760730496265026 C 0.0 **** -0.24
20992 H 7.188471669656479 39.10701638039479 51.63355678750561 H 0.0 **** 0.06
20993 H 6.747350919705724 40.61382971615628 52.47199243117492 H 0.0 **** 0.06
20994 H 5.504472463976185 39.38330508141331 52.13747384964366 H 0.0 **** 0.06
20995 H 6.200647175925809 40.331828743774096 50.801471616614094 H 0.0 **** 0.06
20996 C 60.16949220231709 33.56425409233506 0.1571938694426649 C 0.0 **** -0.24
20997 H 59.96700543324124 33.69721627739435 1.2195689718295881 H 0.0 **** 0.06
20998 H 61.01432015301731 32.887692285291735 0.029735769254216393 H 0.0 **** 0.06
20999 H 60.40602135191034 34.52997002160454 -0.2902013338879357 H 0.0 **** 0.06
21000 H 59.290202862037944 33.14380567366909 -0.3305346412840038 H 0.0 **** 0.06
21001 C 104.15913770620904 45.5706386930965 49.62721916895587 C 0.0 **** -0.24
21002 H 103.30436830831187 45.95456217916032 49.06918885474386 H 0.0 **** 0.06
21003 H 105.08170279256751 45.88047187005981 49.13598011047832 H 0.0 **** 0.06
21004 H 104.11223838889202 44.48226378021684 49.659734095766794 H 0.0 **** 0.06
21005 H 104.13685924702777 45.96661414082939 50.642474232216465 H 0.0 **** 0.06
21006 C 44.11824855460931 39.61616560693432 91.77104376830172 C 0.0 **** -0.24
21007 H 44.125663438215874 39.09052069424098 92.72574118742077 H 0.0 **** 0.06
21008 H 43.24370366098942 39.310224414351865 91.19572992918175 H 0.0 **** 0.06
21009 H 45.02305272830382 39.371329771816704 91.21393462522784 H 0.0 **** 0.06
21010 H 44.080246835471215 40.69049719438533 91.94753505682708 H 0.0 **** 0.06
21011 C 53.87712546772972 29.001111220825123 51.863728399519005 C 0.0 **** -0.24
21012 H 54.593193284717664 28.180517674737985 51.83284484392442 H 0.0 **** 0.06
21013 H 52.88702453765856 28.630266031372457 51.59820488475941 H 0.0 **** 0.06
21014 H 54.17897321596954 29.772664962311865 51.1545905059794 H 0.0 **** 0.06
21015 H 53.850052644421346 29.42291473545123 52.868396297063555 H 0.0 **** 0.06
21016 C 88.70889177917424 1.0863921896550437 76.13049742176577 C 0.0 **** -0.24
21017 H 87.90050791755837 1.8076375763821488 76.25179198359368 H 0.0 **** 0.06
21018 H 89.527550662975 1.549069709324442 75.57803027663641 H 0.0 **** 0.06
21019 H 88.34368427411923 0.21987528649574983 75.57938884912056 H 0.0 **** 0.06
21020 H 89.0644615646722 0.770514334912832 77.11097333279758 H 0.0 **** 0.06
21021 C 44.324110380956625 93.9190243963971 63.77786326506876 C 0.0 **** -0.24
21022 H 44.286508181161764 94.86084213907554 63.230356963079544 H 0.0 **** 0.06
21023 H 45.269991555809895 93.41697602246106 63.57158911518252 H 0.0 **** 0.06
21024 H 43.49805809036104 93.28345413513826 63.46262103014419 H 0.0 **** 0.06
21025 H 44.24412332670937 94.11740478123092 64.84631073085586 H 0.0 **** 0.06
21026 C 7.440910143927738 13.413873362646456 1.6067537175139535 C 0.0 **** -0.24
21027 H 6.884455000174199 14.063964372716725 0.9323458050982651 H 0.0 **** 0.06
21028 H 7.992083420714863 12.674270230332496 1.0254784068960419 H 0.0 **** 0.06
21029 H 6.747421349575745 12.90578083612823 2.2775361376827163 H 0.0 **** 0.06
21030 H 8.140621286616067 14.01128417958708 2.191375281599278 H 0.0 **** 0.06
21031 C 2.9578026435950875 45.0683421658799 85.33859296068417 C 0.0 **** -0.24
21032 H 3.8013216372833227 44.41364954730048 85.121065991822 H 0.0 **** 0.06
21033 H 2.0858486953211752 44.73561850911119 84.77335660952097 H 0.0 **** 0.06
21034 H 3.207495477198435 46.090041704774734 85.05223954531242 H 0.0 **** 0.06
21035 H 2.7354042532296887 45.032890890069154 86.40434284516341 H 0.0 **** 0.06
21036 C 33.163465215704264 39.7198682751189 59.487255329880725 C 0.0 **** -0.24
21037 H 33.33135541489378 39.77512213439604 60.562629033309335 H 0.0 **** 0.06
21038 H 33.951773867431996 40.26545819689744 58.967895266521325 H 0.0 **** 0.06
21039 H 32.19580216721039 40.16233938818357 59.24776557828757 H 0.0 **** 0.06
21040 H 33.17384475303592 38.67744164563672 59.1709174485043 H 0.0 **** 0.06
21041 C 91.0210790049219 25.253729188041888 69.43021317244586 C 0.0 **** -0.24
21042 H 91.83393439693175 24.720236340391295 68.93684692110429 H 0.0 **** 0.06
21043 H 90.40470291743999 25.749322692399858 68.6798976726223 H 0.0 **** 0.06
21044 H 91.4340989952422 25.996554382126618 70.11161678204911 H 0.0 **** 0.06
21045 H 90.41124809626277 24.545534658656806 69.991005909638 H 0.0 **** 0.06
21046 C 91.9439285860716 65.62751991210018 97.71081784223918 C 0.0 **** -0.24
21047 H 91.19771274385204 66.1888373710766 97.14916018649086 H 0.0 **** 0.06
21048 H 91.45934113188059 64.80550263658938 98.23805910656961 H 0.0 **** 0.06
21049 H 92.42667456140971 66.28777267548139 98.43220844922072 H 0.0 **** 0.06
21050 H 92.69146958406947 65.22964161625532 97.0255551336628 H 0.0 **** 0.06
21051 C 1.2024294707863703 65.79006982245579 22.875344570379895 C 0.0 **** -0.24
21052 H 0.5052391060951038 65.08058816261632 22.42895669913574 H 0.0 **** 0.06
21053 H 2.1540915084176504 65.29420653133093 23.06443622518691 H 0.0 **** 0.06
21054 H 0.7918023966303025 66.16024129885295 23.814839767482766 H 0.0 **** 0.06
21055 H 1.3571510552723822 66.62520092762861 22.192174752317044 H 0.0 **** 0.06
21056 C 49.042075001662816 37.721269717228374 16.82452483782552 C 0.0 **** -0.24
21057 H 48.925462960691235 36.81594782650835 16.22832884179584 H 0.0 **** 0.06
21058 H 48.58734591835354 38.56180990698179 16.29971304992792 H 0.0 **** 0.06
21059 H 50.101866913795895 37.92011236338966 16.980397802389074 H 0.0 **** 0.06
21060 H 48.55192481884771 37.5874111555677 17.788624621549477 H 0.0 **** 0.06
21061 C 86.7160497031208 105.05610572275404 99.58889799221555 C 0.0 **** -0.24
21062 H 86.56240042803006 106.13368257342398 99.53811683868987 H 0.0 **** 0.06
21063 H 87.60428806504262 104.7894153710223 99.01556158499538 H 0.0 **** 0.06
21064 H 85.84772118116592 104.54529689670616 99.17427938562216 H 0.0 **** 0.06
21065 H 86.85199968922404 104.75687586963559 100.6282626240851 H 0.0 **** 0.06
21066 C 98.09690166926043 91.07309563066815 5.125125236051815 C 0.0 **** -0.24
21067 H 98.27577983256282 90.03325521097281 5.399934752620368 H 0.0 **** 0.06
21068 H 97.74924721932985 91.62385370484503 5.999044940870874 H 0.0 **** 0.06
21069 H 97.33915778571964 91.11662622194075 4.343102856196765 H 0.0 **** 0.06
21070 H 99.02230155603871 91.51674173043796 4.76018300449357 H 0.0 **** 0.06
21071 C 63.838523063343246 49.51753167088282 94.61574357526871 C 0.0 **** -0.24
21072 H 63.51073858602189 49.42614274299508 93.58007608658616 H 0.0 **** 0.06
21073 H 64.1767653274774 48.545994648495096 94.97724289818592 H 0.0 **** 0.06
21074 H 63.008275926491336 49.86529981103785 95.23034323224417 H 0.0 **** 0.06
21075 H 64.65867475291678 50.23357393427406 94.67501797055843 H 0.0 **** 0.06
21076 C 36.24127567818243 57.69717547491132 35.823447223322034 C 0.0 **** -0.24
21077 H 36.500566982357725 57.36484592477507 36.82884955169277 H 0.0 **** 0.06
21078 H 35.726493850648296 56.892323847591456 35.29717890545314 H 0.0 **** 0.06
21079 H 37.14928378411658 57.96383789405553 35.28293251721331 H 0.0 **** 0.06
21080 H 35.58745894964699 58.56703952914921 35.886526104353806 H 0.0 **** 0.06
21081 C 66.01482620213773 53.662858391681425 20.267633264863743 C 0.0 **** -0.24
21082 H 65.39137129249991 52.86406066019316 19.864943640781856 H 0.0 **** 0.06
21083 H 66.85233319542962 53.84512385597532 19.594938667780273 H 0.0 **** 0.06
21084 H 66.3921194666637 53.369849104065224 21.247657810148965 H 0.0 **** 0.06
21085 H 65.42125294791859 54.57212162128616 20.364982770449657 H 0.0 **** 0.06
21086 C 34.18345688056674 84.1848708424425 85.92605312014774 C 0.0 **** -0.24
21087 H 33.66108007723667 84.2056947230734 84.969658553008 H 0.0 **** 0.06
21088 H 34.214185765252516 83.16214646340126 86.30198039820925 H 0.0 **** 0.06
21089 H 33.658064520414634 84.81929344247683 86.64021317708807 H 0.0 **** 0.06
21090 H 35.200297122167825 84.55372127191521 85.7926364755615 H 0.0 **** 0.06
21091 C 27.940153288971104 5.499318820663973 74.45355312618011 C 0.0 **** -0.24
21092 H 27.369426735702206 5.041109468484464 75.26004182573593 H 0.0 **** 0.06
21093 H 27.27966118486475 6.117443731426704 73.84561193021386 H 0.0 **** 0.06
21094 H 28.381447605480233 4.7193933491930125 73.831572092259 H 0.0 **** 0.06
21095 H 28.73234116025435 6.118417638370133 74.87524115139342 H 0.0 **** 0.06
21096 C 28.836731107899908 108.57809048272534 87.27282117752665 C 0.0 **** -0.24
21097 H 29.026173942885677 109.58801389601715 87.63648014179988 H 0.0 **** 0.06
21098 H 29.723689690061008 108.20521122228953 86.75941069467594 H 0.0 **** 0.06
21099 H 27.99561921634053 108.59298055009548 86.58038363073712 H 0.0 **** 0.06
21100 H 28.6028912663909 107.92710162967876 88.11494061673703 H 0.0 **** 0.06
21101 C 102.64085193907954 81.1812306570356 24.497962871104477 C 0.0 **** -0.24
21102 H 101.78588986631995 81.51680515349608 25.08415251388999 H 0.0 **** 0.06
21103 H 103.17258679160298 82.0480134098149 24.104423191567776 H 0.0 **** 0.06
21104 H 102.2933168689396 80.561554886565 23.67112669440337 H 0.0 **** 0.06
21105 H 103.31095890515807 80.60075436277987 25.13130764947755 H 0.0 **** 0.06
21106 C 85.62794809626564 20.122854367258213 59.977568893867556 C 0.0 **** -0.24
21107 H 85.13326933120918 20.980958324494424 59.5221797567952 H 0.0 **** 0.06
21108 H 85.8458315029415 20.342429437190333 61.02270540946034 H 0.0 **** 0.06
21109 H 86.55767492797806 19.916976722493246 59.44661487035137 H 0.0 **** 0.06
21110 H 84.9748527022333 19.252634245587103 59.91720296266874 H 0.0 **** 0.06
21111 C 49.24204442335002 45.4495903343489 55.43194749779423 C 0.0 **** -0.24
21112 H 50.3190451044662 45.61216118337063 55.381897302693226 H 0.0 **** 0.06
21113 H 49.038211094203206 44.380441254014215 55.49216342039675 H 0.0 **** 0.06
21114 H 48.77181706819687 45.85975965585152 54.53854945420195 H 0.0 **** 0.06
21115 H 48.84119231905188 45.946523034606 56.3145743390402 H 0.0 **** 0.06
21116 C 93.09580982289624 67.71698830888306 88.62737356175295 C 0.0 **** -0.24
21117 H 94.00065481349549 67.15033073678552 88.40498531779845 H 0.0 **** 0.06
21118 H 92.9292316558508 67.72672619162557 89.70535069923787 H 0.0 **** 0.06
21119 H 92.24489052079002 67.25041037136614 88.13169416048588 H 0.0 **** 0.06
21120 H 93.21072178802493 68.73957629764362 88.26772403214808 H 0.0 **** 0.06
21121 C 49.382181353492626 33.12751450975986 61.12977524712829 C 0.0 **** -0.24
21122 H 49.52567806546679 34.18359101862242 61.35885350035079 H 0.0 **** 0.06
21123 H 50.31563999984803 32.70610966454581 60.75547765138987 H 0.0 **** 0.06
21124 H 48.605219475849935 33.02173005878487 60.37266718290721 H 0.0 **** 0.06
21125 H 49.08183315338499 32.59782881303835 62.03390176433061 H 0.0 **** 0.06
21126 C 30.213669406044914 1.984557579492261 10.144331430484499 C 0.0 **** -0.24
21127 H 30.108476955757 1.3138745216567145 9.29173040925707 H 0.0 **** 0.06
21128 H 29.399406591671948 2.7098951360587904 10.1397180692951 H 0.0 **** 0.06
21129 H 31.16763692082435 2.508874709168097 10.077254397188199 H 0.0 **** 0.06
21130 H 30.181006316028686 1.4065783646863395 11.067359507831839 H 0.0 **** 0.06
21131 C 72.45615984828612 1.3672051266501413 62.269910104400466 C 0.0 **** -0.24
21132 H 73.15863674888578 1.5967847848163412 61.46813197858708 H 0.0 **** 0.06
21133 H 71.59607685160717 2.0339023211708884 62.20047762640853 H 0.0 **** 0.06
21134 H 72.9466499030064 1.505056523981831 63.232945501397666 H 0.0 **** 0.06
21135 H 72.12348194294981 0.33401241402186344 62.17583084597423 H 0.0 **** 0.06
21136 C 60.720551731408875 62.137509991472655 57.58107791144948 C 0.0 **** -0.24
21137 H 60.10755317962497 62.741142103261836 58.250428928698 H 0.0 **** 0.06
21138 H 61.55401808434672 62.73623302298867 57.21397807279345 H 0.0 **** 0.06
21139 H 60.11507020088635 61.80049425842424 56.73989646424093 H 0.0 **** 0.06
21140 H 61.104232043228464 61.27244835276156 58.121781620787715 H 0.0 **** 0.06
21141 C 89.06146833046353 72.42333245753866 29.50784545445282 C 0.0 **** -0.24
21142 H 88.97746477069524 71.50130475584933 30.084447682544806 H 0.0 **** 0.06
21143 H 89.03041999327496 72.1898008382937 28.443868157932258 H 0.0 **** 0.06
21144 H 90.00550730778193 72.91398253254073 29.745034514439 H 0.0 **** 0.06
21145 H 88.233718065537 73.0857815521573 29.75922242703922 H 0.0 **** 0.06
21146 C 14.383633177382876 104.9661134425389 85.63589333534134 C 0.0 **** -0.24
21147 H 15.05806274292668 105.79308126566542 85.41405847709353 H 0.0 **** 0.06
21148 H 14.3651008851146 104.7929884298761 86.71245224030618 H 0.0 **** 0.06
21149 H 14.73248984860652 104.06745925298043 85.12878652350166 H 0.0 **** 0.06
21150 H 13.3801428592148 105.21300201094877 85.29003365147106 H 0.0 **** 0.06
21151 C 19.82584699092942 54.50138702905228 52.61558326112166 C 0.0 **** -0.24
21152 H 19.950358556847306 54.152376280556346 51.59012232166668 H 0.0 **** 0.06
21153 H 20.67107372295615 55.13428000165012 52.888762805031206 H 0.0 **** 0.06
21154 H 19.779971701452297 53.64433136049564 53.28729730581213 H 0.0 **** 0.06
21155 H 18.901602405096995 55.07424505612204 52.694825843640984 H 0.0 **** 0.06
21156 C 73.92503886067217 73.04410850485877 68.95994652495153 C 0.0 **** -0.24
21157 H 72.90925586315433 72.84001310451765 69.30083914806801 H 0.0 **** 0.06
21158 H 74.6324431267742 72.76309982652866 69.740332373861 H 0.0 **** 0.06
21159 H 74.02845709704138 74.10621432752319 68.73976119720257 H 0.0 **** 0.06
21160 H 74.12835830977878 72.46530787674911 68.05912037472268 H 0.0 **** 0.06
21161 C 109.14294879071963 105.40256078381384 50.77328021733083 C 0.0 **** -0.24
21162 H 108.92847835926148 104.80957298152055 49.885210095349166 H 0.0 **** 0.06
21163 H 110.2148330758057 105.38606578348075 50.9709636394886 H 0.0 **** 0.06
21164 H 108.6089249139211 104.98537340005055 51.627132035291496 H 0.0 **** 0.06
21165 H 108.81929715622141 106.43093873943484 50.60969176894991 H 0.0 **** 0.06
21166 C 77.49487599222313 106.42794876328716 63.20079403672406 C 0.0 **** -0.24
21167 H 77.53394894046512 107.50340948995427 63.0283230213373 H 0.0 **** 0.06
21168 H 77.95848738132449 105.90867748882229 62.360906157254306 H 0.0 **** 0.06
21169 H 76.45546875739925 106.1127959367813 63.29416449897559 H 0.0 **** 0.06
21170 H 78.0314795914485 106.1866841561484 64.11839182453511 H 0.0 **** 0.06
21171 C 0.9744588917711212 85.00586056264353 104.19057749665293 C 0.0 **** -0.24
21172 H 1.0284646674989801 83.9543172315087 104.47162501550237 H 0.0 **** 0.06
21173 H 1.7618365521565238 85.23141864012598 103.47171403231204 H 0.0 **** 0.06
21174 H 1.103655079271661 85.62582049472701 105.07802709239384 H 0.0 **** 0.06
21175 H 0.0018561225878812593 85.21260653148164 103.74156658302971 H 0.0 **** 0.06
21176 C 106.45257545063149 33.93970105412471 98.62867215504166 C 0.0 **** -0.24
21177 H 105.76476893738709 33.47363105279995 97.92315767373428 H 0.0 **** 0.06
21178 H 106.0353161795255 34.885371039436144 98.97317420128873 H 0.0 **** 0.06
21179 H 107.40784002614916 34.12138259247226 98.13545093031023 H 0.0 **** 0.06
21180 H 106.60458260060801 33.27670672596076 99.47987250400533 H 0.0 **** 0.06
21181 C 11.145807429235589 1.0455773540055588 65.77495077192555 C 0.0 **** -0.24
21182 H 11.377516438702571 1.4208894179616323 66.7724078336854 H 0.0 **** 0.06
21183 H 12.073047536788579 0.85253307562391 65.23533662514336 H 0.0 **** 0.06
21184 H 10.558750226940731 1.788507954382169 65.23544759948311 H 0.0 **** 0.06
21185 H 10.57478638878635 0.12101304701963045 65.85881098928257 H 0.0 **** 0.06
21186 C 102.99032654708874 105.61327030862994 18.630981008230293 C 0.0 **** -0.24
21187 H 101.97025124568191 105.94005972186928 18.431331952386387 H 0.0 **** 0.06
21188 H 103.01726824673187 104.52493688413215 18.69186018289028 H 0.0 **** 0.06
21189 H 103.33011716450136 106.03776287867153 19.57501546906599 H 0.0 **** 0.06
21190 H 103.64347976190203 105.94798632735349 17.825002222049932 H 0.0 **** 0.06
21191 C 7.192010391509356 51.161991844931094 49.112811415375006 C 0.0 **** -0.24
21192 H 7.02733469757996 50.26971570178077 49.71617688743436 H 0.0 **** 0.06
21193 H 6.273889683243809 51.41750914593939 48.58411680774424 H 0.0 **** 0.06
21194 H 7.986197827579801 50.97042363572979 48.39094668398633 H 0.0 **** 0.06
21195 H 7.481428443642443 51.98934906243656 49.76064160199701 H 0.0 **** 0.06
21196 C 23.745793559759747 91.41442683457655 75.91494818335218 C 0.0 **** -0.24
21197 H 24.48363713014207 91.30876677120924 75.11985854661276 H 0.0 **** 0.06
21198 H 23.260003776379108 90.45426733671705 76.09006751425731 H 0.0 **** 0.06
21199 H 22.998559842584257 92.15262244775255 75.62268499568218 H 0.0 **** 0.06
21200 H 24.242127298635012 91.7425975731829 76.82901743200206 H 0.0 **** 0.06
21201 C 33.5903227284464 45.2104638778881 62.56292283689449 C 0.0 **** -0.24
21202 H 32.785767690475154 44.4968673957301 62.74223265921988 H 0.0 **** 0.06
21203 H 33.197763494252946 46.071843912795586 62.02222381567351 H 0.0 **** 0.06
21204 H 34.37180495178103 44.73375832712857 61.96955433240328 H 0.0 **** 0.06
21205 H 34.00556667010331 45.536786159808436 63.51623440696363 H 0.0 **** 0.06
21206 C 39.89477733590748 54.66950073192252 10.578657468532015 C 0.0 **** -0.24
21207 H 40.76647450948019 54.01831295171947 10.634837462787104 H 0.0 **** 0.06
21208 H 39.51860097601374 54.86115442632843 11.584860762747127 H 0.0 **** 0.06
21209 H 39.11809238240015 54.18631366618212 9.986590384870212 H 0.0 **** 0.06
21210 H 40.17544586470504 55.61324010462628 10.11051333578213 H 0.0 **** 0.06
21211 C 34.42413337208677 55.64731228140362 40.75564006380452 C 0.0 **** -0.24
21212 H 33.56830404146231 56.197556577598746 40.36334406111982 H 0.0 **** 0.06
21213 H 34.073009899211264 54.844138659157686 41.40303881330354 H 0.0 **** 0.06
21214 H 35.05999888194391 56.32442806345405 41.32672065807438 H 0.0 **** 0.06
21215 H 34.99420859875182 55.22563338106665 39.927817092333385 H 0.0 **** 0.06
21216 C 14.057431765899494 27.085904027341684 80.55857665488483 C 0.0 **** -0.24
21217 H 13.588920701131965 26.93736574398723 79.58577118460207 H 0.0 **** 0.06
21218 H 13.480322215560854 26.565784792474208 81.32326370946049 H 0.0 **** 0.06
21219 H 14.087453594630766 28.151974747377288 80.78735105048743 H 0.0 **** 0.06
21220 H 15.072667915409003 26.69067395957751 80.5358951200716 H 0.0 **** 0.06
21221 C 50.73803003113711 61.99816179903135 64.9332206648071 C 0.0 **** -0.24
21222 H 50.27588079653262 62.46808310277271 65.80082929620502 H 0.0 **** 0.06
21223 H 50.77490800435563 60.91858323972701 65.08183399885911 H 0.0 **** 0.06
21224 H 51.74946303408766 62.382493488917646 64.80684387543613 H 0.0 **** 0.06
21225 H 50.149976616377636 62.22274414482109 64.04244304671403 H 0.0 **** 0.06
21226 C 38.177666712570954 45.05108389804525 76.74504778359159 C 0.0 **** -0.24
21227 H 38.71049136496402 44.163695608521664 77.08614985849815 H 0.0 **** 0.06
21228 H 38.363601678810426 45.87448727793088 77.43590513638031 H 0.0 **** 0.06
21229 H 37.109479961021194 44.84143538198549 76.70820750221858 H 0.0 **** 0.06
21230 H 38.529379941520695 45.326313480020815 75.75040450730214 H 0.0 **** 0.06
21231 C 76.29102569990584 76.86037991596027 86.88094477750316 C 0.0 **** -0.24
21232 H 76.0589129943174 75.86459893173844 87.25719150587628 H 0.0 **** 0.06
21233 H 75.40633343747864 77.49279344660323 86.95525804159746 H 0.0 **** 0.06
21234 H 76.60213891527192 76.79193236949084 85.83875803386186 H 0.0 **** 0.06
21235 H 77.0976641169353 77.29320557244745 87.47285875797475 H 0.0 **** 0.06
21236 C 109.54722978147583 14.580753852515073 100.18982816245489 C 0.0 **** -0.24
21237 H 109.62118965658091 14.729007309187907 99.1122477210497 H 0.0 **** 0.06
21238 H 110.0658392546782 15.390349960895236 100.70403349390386 H 0.0 **** 0.06
21239 H 110.00570069599179 13.628800129339723 100.45798720524522 H 0.0 **** 0.06
21240 H 108.49828912620963 14.57513154518547 100.48576331121879 H 0.0 **** 0.06
21241 C 72.96561463136392 83.33767251803029 16.09430247564251 C 0.0 **** -0.24
21242 H 73.17014439900005 83.08844089244222 15.052707572974267 H 0.0 **** 0.06
21243 H 73.77069059818578 83.96183112542674 16.48284395549403 H 0.0 **** 0.06
21244 H 72.89958703284073 82.42198300166085 16.680648554793372 H 0.0 **** 0.06
21245 H 72.02176213732841 83.87988360292383 16.15932854569784 H 0.0 **** 0.06
21246 C 50.085571088705 103.70089033307502 85.23514601650824 C 0.0 **** -0.24
21247 H 50.18140217524348 102.68166344610661 84.85961741029402 H 0.0 **** 0.06
21248 H 49.62969592748209 104.3289732214005 84.46868757775904 H 0.0 **** 0.06
21249 H 51.07249512804507 104.08991169633266 85.48504406844935 H 0.0 **** 0.06
21250 H 49.45820723380073 103.70170923270872 86.12697766953639 H 0.0 **** 0.06
21251 C 13.355398558123603 98.10770408512202 46.17581488679508 C 0.0 **** -0.24
21252 H 12.851543188464017 97.2119706608536 46.54067950942772 H 0.0 **** 0.06
21253 H 14.369686837835026 97.8526957314963 45.866352722510385 H 0.0 **** 0.06
21254 H 13.393511206250018 98.85272650378127 46.970284353123276 H 0.0 **** 0.06
21255 H 12.80678038394294 98.51131429983116 45.32469936332953 H 0.0 **** 0.06
21256 C 95.56300484647382 70.06122932281156 73.84835519776647 C 0.0 **** -0.24
21257 H 96.24648217116525 70.65525972215806 73.24179740647173 H 0.0 **** 0.06
21258 H 95.40155834094702 69.09391653021657 73.37208348580344 H 0.0 **** 0.06
21259 H 94.61151298454527 70.5847768518089 73.94123658179339 H 0.0 **** 0.06
21260 H 95.99322955579615 69.91249678541774 74.83856428922132 H 0.0 **** 0.06
21261 C 18.006608995149236 4.5294678767508 40.55299405147366 C 0.0 **** -0.24
21262 H 18.45108050323853 3.5403550260609222 40.43515236314025 H 0.0 **** 0.06
21263 H 17.756002342197178 4.691029923867404 41.60197965730855 H 0.0 **** 0.06
21264 H 17.102904468296742 4.595229352137494 39.94822035770605 H 0.0 **** 0.06
21265 H 18.71808576859212 5.287613390577377 40.22836838215734 H 0.0 **** 0.06
21266 C 48.554273883553556 46.767247792799765 88.44775314136865 C 0.0 **** -0.24
21267 H 47.79640229189677 47.53346848680596 88.61763646043477 H 0.0 **** 0.06
21268 H 49.534644072089606 47.162144038342035 88.71398982711736 H 0.0 **** 0.06
21269 H 48.55122104320961 46.479789363541045 87.3969672461717 H 0.0 **** 0.06
21270 H 48.33352199614532 45.89644332142103 89.06419361272768 H 0.0 **** 0.06
21271 C 107.81362730121852 36.169544361887084 58.583313297886036 C 0.0 **** -0.24
21272 H 108.38058699969542 36.45975202624262 57.69883495628619 H 0.0 **** 0.06
21273 H 106.90895440558644 36.774290451357565 58.64884091167454 H 0.0 **** 0.06
21274 H 108.42284548669289 36.32910819570061 59.47352808480264 H 0.0 **** 0.06
21275 H 107.54315380683812 35.1159863152923 58.51192513482408 H 0.0 **** 0.06
21276 C 43.27350374416355 27.344546243191843 40.928321217201045 C 0.0 **** -0.24
21277 H 42.31020981249287 27.438895016408793 40.42729843346214 H 0.0 **** 0.06
21278 H 43.184027177186124 27.700524655094597 41.95587373221194 H 0.0 **** 0.06
21279 H 44.01752246170179 27.941141238807887 40.40136557946295 H 0.0 **** 0.06
21280 H 43.58075922266528 26.299052478260336 40.93186504135045 H 0.0 **** 0.06
21281 C 96.42215746134822 32.31361258957417 53.98600581241715 C 0.0 **** -0.24
21282 H 96.87444352954958 32.92290065380146 53.20428716894202 H 0.0 **** 0.06
21283 H 97.10080556077713 31.502821385430416 54.25190267131262 H 0.0 **** 0.06
21284 H 95.48280345001196 31.896453193833032 53.622890376680346 H 0.0 **** 0.06
21285 H 96.23191382395947 32.930710351247164 54.86406813217954 H 0.0 **** 0.06
21286 C 38.73933796451564 96.86120207759927 83.13464390610017 C 0.0 **** -0.24
21287 H 37.916034388812335 96.4058713122447 83.68372657287 H 0.0 **** 0.06
21288 H 38.348388767479975 97.38970787672247 82.26504107100845 H 0.0 **** 0.06
21289 H 39.43147716215057 96.08517668337151 82.80793815824688 H 0.0 **** 0.06
21290 H 39.263010383436296 97.56479404266332 83.78201187648159 H 0.0 **** 0.06
21291 C 0.2958820899353327 86.92956899507965 65.45722356017382 C 0.0 **** -0.24
21292 H -0.5293521496669769 86.41650839115755 64.96353743362371 H 0.0 **** 0.06
21293 H 0.3801447605133603 86.57714735823254 66.4853872339446 H 0.0 **** 0.06
21294 H 0.10842450870575249 88.00369693456128 65.45507960843759 H 0.0 **** 0.06
21295 H 1.2237869108059272 86.7221398362858 64.92439477797745 H 0.0 **** 0.06
21296 C 59.526853601532196 52.04903380928431 18.00153371597574 C 0.0 **** -0.24
21297 H 58.99705434170147 52.371862058542774 18.898722372583165 H 0.0 **** 0.06
21298 H 60.60012381415493 52.04487469079484 18.195972822583357 H 0.0 **** 0.06
21299 H 59.30774202586761 52.73547027893149 17.18432641758244 H 0.0 **** 0.06
21300 H 59.20266970723145 51.04413922967822 17.73084492368504 H 0.0 **** 0.06
21301 C 89.15049133036682 36.390232270602354 95.8086042314037 C 0.0 **** -0.24
21302 H 89.37075962071411 36.22829748985774 96.8639320272552 H 0.0 **** 0.06
21303 H 89.30243985256709 37.44164690370803 95.56252355628015 H 0.0 **** 0.06
21304 H 88.11480258229845 36.115900313345406 95.60749098254183 H 0.0 **** 0.06
21305 H 89.81396326588774 35.775084375497954 95.20047035953769 H 0.0 **** 0.06
21306 C 21.845306107386847 83.07465646269287 3.556143574408111 C 0.0 **** -0.24
21307 H 22.92209872357779 83.20065515630284 3.667780076242039 H 0.0 **** 0.06
21308 H 21.56652403104431 82.06232551815188 3.851244270103848 H 0.0 **** 0.06
21309 H 21.56665791207493 83.24015526960517 2.5154428203716606 H 0.0 **** 0.06
21310 H 21.328251924637186 83.79467100867848 4.190061339643151 H 0.0 **** 0.06
21311 C 30.13497336846487 99.55995060062166 14.139276254761505 C 0.0 **** -0.24
21312 H 30.613016615774256 99.24582459028132 15.067188018378253 H 0.0 **** 0.06
21313 H 29.332317925546874 100.2627561765017 14.365314644620522 H 0.0 **** 0.06
21314 H 29.722692422591194 98.68887638790878 13.630642951897833 H 0.0 **** 0.06
21315 H 30.871267490924055 100.04258206010407 13.497055465989131 H 0.0 **** 0.06
21316 C 79.47209491693866 41.61044335285851 66.98968178604548 C 0.0 **** -0.24
21317 H 78.93442348767351 42.525938455712065 67.23785091818098 H 0.0 **** 0.06
21318 H 79.40290199266056 40.91174190010988 67.82413215010482 H 0.0 **** 0.06
21319 H 80.51864232416511 41.8439854254073 66.79730119511882 H 0.0 **** 0.06
21320 H 79.03107382992701 41.159202991048936 66.10098934325552 H 0.0 **** 0.06
21321 C 70.26462805922358 43.02242221331139 13.193139981493601 C 0.0 **** -0.24
21322 H 70.12261087935053 42.06848595958647 13.701046939265666 H 0.0 **** 0.06
21323 H 70.14571987859517 42.88209225500739 12.118231084238573 H 0.0 **** 0.06
21324 H 71.26488409314834 43.3997524302375 13.402909962665092 H 0.0 **** 0.06
21325 H 69.52316794582549 43.73725038190331 13.550220264850495 H 0.0 **** 0.06
21326 C 12.861335620670175 66.98582424567796 60.1993018131499 C 0.0 **** -0.24
21327 H 13.06814610656076 68.05382993187563 60.127364110573126 H 0.0 **** 0.06
21328 H 11.81046948108009 66.83559607273106 60.44927110798983 H 0.0 **** 0.06
21329 H 13.486450606272399 66.54623617660572 60.976720188497325 H 0.0 **** 0.06
21330 H 13.079345640233626 66.50795186403874 59.2440346430501 H 0.0 **** 0.06
21331 C 73.33270442572936 55.440317112685676 55.13266477518237 C 0.0 **** -0.24
21332 H 73.4413833159768 54.513813421651435 55.69771841126304 H 0.0 **** 0.06
21333 H 74.3194412261693 55.82590483176162 54.873091259691265 H 0.0 **** 0.06
21334 H 72.80313981492124 56.174914820224444 55.73916312909614 H 0.0 **** 0.06
21335 H 72.7677394878221 55.245099685942876 54.221611830888484 H 0.0 **** 0.06
21336 C 60.777188099452715 32.51572292404535 6.457092920689075 C 0.0 **** -0.24
21337 H 61.350082439643955 32.31217618716576 7.360855305590508 H 0.0 **** 0.06
21338 H 61.42428315242087 32.41129212470716 5.585955185721154 H 0.0 **** 0.06
21339 H 60.38217808190073 33.5306507503208 6.4976183168536 H 0.0 **** 0.06
21340 H 59.95109019173951 31.807727201622185 6.383132869695494 H 0.0 **** 0.06
21341 C 67.21476227017621 47.512874928377244 53.25615446015058 C 0.0 **** -0.24
21342 H 66.21680137461362 47.72997377150443 52.87334386677287 H 0.0 **** 0.06
21343 H 67.19944067268409 46.560354542888945 53.78612701666444 H 0.0 **** 0.06
21344 H 67.52123375014054 48.30444924804908 53.938865954953485 H 0.0 **** 0.06
21345 H 67.91789836083365 47.456332265738354 52.42569479539941 H 0.0 **** 0.06
21346 C 73.39132445189394 23.6496762154932 32.7041144294723 C 0.0 **** -0.24
21347 H 74.44029749289238 23.54893391637853 32.98078250990093 H 0.0 **** 0.06
21348 H 73.06889976609332 24.67755103768522 32.87059688684553 H 0.0 **** 0.06
21349 H 72.78906996173207 22.976460836139665 33.31445804684974 H 0.0 **** 0.06
21350 H 73.26752731016424 23.39533049824678 31.65137501992595 H 0.0 **** 0.06
21351 C 2.082216077250763 65.80442862252647 81.62116217463338 C 0.0 **** -0.24
21352 H 2.8774781040106063 66.48036436474106 81.9354453480405 H 0.0 **** 0.06
21353 H 1.5807845208873346 66.21589798385055 80.74420369446449 H 0.0 **** 0.06
21354 H 1.3621201649286832 65.68969781022174 82.43128095856599 H 0.0 **** 0.06
21355 H 2.5090667907114437 64.8329911360752 81.3733611059157 H 0.0 **** 0.06
21356 C 91.5128368800925 56.24546407488623 2.9348113472302515 C 0.0 **** -0.24
21357 H 91.28552580331265 56.588827084397366 1.9256308651592349 H 0.0 **** 0.06
21358 H 91.72384118982643 57.104467223973415 3.5715023923524285 H 0.0 **** 0.06
21359 H 92.38375237913982 55.58982130043054 2.908782043017652 H 0.0 **** 0.06
21360 H 90.65822814809084 55.698740690743534 3.3333300883916763 H 0.0 **** 0.06
21361 C 7.5554241409616605 46.564266789300035 53.65580181729101 C 0.0 **** -0.24
21362 H 6.838294489185911 46.421625218591544 52.8470062867147 H 0.0 **** 0.06
21363 H 7.473546657271186 45.73779053320217 54.362636219305244 H 0.0 **** 0.06
21364 H 7.344126158268452 47.50250612242269 54.16727104368988 H 0.0 **** 0.06
21365 H 8.564684990252166 46.59289262538812 53.244609828489274 H 0.0 **** 0.06
21366 C 53.10074895177235 47.2743491610635 31.943375294902545 C 0.0 **** -0.24
21367 H 53.227255092350326 46.67692448268656 32.84603008046382 H 0.0 **** 0.06
21368 H 53.068485170307675 48.331098268801895 32.209311607859 H 0.0 **** 0.06
21369 H 52.16886062351174 46.995443818417954 31.45085451424655 H 0.0 **** 0.06
21370 H 53.936710531538075 47.093953680617005 31.2683831589666 H 0.0 **** 0.06
21371 C 21.653324853590703 43.881000095780394 45.846958100773804 C 0.0 **** -0.24
21372 H 22.233864815806896 44.74725434173908 45.529818288866636 H 0.0 **** 0.06
21373 H 20.780426850440136 44.213984821180304 46.40790368612252 H 0.0 **** 0.06
21374 H 22.269862798130745 43.24168905121421 46.479505431667405 H 0.0 **** 0.06
21375 H 21.329350862734174 43.320018682546035 44.969684199604075 H 0.0 **** 0.06
21376 C 35.34057897294179 32.00407008292325 28.09944848035604 C 0.0 **** -0.24
21377 H 36.15927642864719 32.176865031409505 27.400504891148017 H 0.0 **** 0.06
21378 H 34.6757689104471 32.8680448091211 28.099484278471543 H 0.0 **** 0.06
21379 H 35.74399938448299 31.854945539283193 29.100241914066146 H 0.0 **** 0.06
21380 H 34.785129276275775 31.117162634295056 27.795325940000048 H 0.0 **** 0.06
21381 C 108.57113932177379 72.17992011085039 71.89008505972453 C 0.0 **** -0.24
21382 H 108.98994476045648 71.3089114835254 72.39351695882482 H 0.0 **** 0.06
21383 H 108.06741970582256 72.81363077812091 72.62085939793371 H 0.0 **** 0.06
21384 H 107.85585689566392 71.85514397850915 71.1357733565161 H 0.0 **** 0.06
21385 H 109.37405970751612 72.7434196041554 71.41232358581163 H 0.0 **** 0.06
21386 C 106.78271881546466 91.86205252816495 60.14473766987244 C 0.0 **** -0.24
21387 H 106.73862309547522 90.79675070572915 60.368175038522324 H 0.0 **** 0.06
21388 H 107.63915793781206 92.30507410612341 60.65333245863843 H 0.0 **** 0.06
21389 H 105.86713073413149 92.34290561582998 60.48954706777896 H 0.0 **** 0.06
21390 H 106.88486288537224 92.00370451141396 59.068755307955556 H 0.0 **** 0.06
21391 C 9.460758378268906 74.05918703986265 85.96193053732972 C 0.0 **** -0.24
21392 H 9.454784631539027 73.08001814770415 85.48301892769729 H 0.0 **** 0.06
21393 H 9.42956250783341 73.93388518443805 87.04425534735176 H 0.0 **** 0.06
21394 H 8.588505451605045 74.62714768386218 85.63639047091206 H 0.0 **** 0.06
21395 H 10.367934588107772 74.59379576142385 85.68347500958578 H 0.0 **** 0.06
21396 C 101.36922205968213 24.924355584420027 31.000325404311013 C 0.0 **** -0.24
21397 H 100.38116235973497 25.14519690261193 31.40434010857075 H 0.0 **** 0.06
21398 H 101.91252405962288 25.85623708181913 30.841009408100234 H 0.0 **** 0.06
21399 H 101.2658274832238 24.396322684531583 30.052764581097676 H 0.0 **** 0.06
21400 H 101.91844550490396 24.299441998440045 31.705795770099826 H 0.0 **** 0.06
21401 C 86.15222060936406 83.01761148355502 76.49741969684885 C 0.0 **** -0.24
21402 H 85.21678988186244 82.48804527778793 76.67710192233147 H 0.0 **** 0.06
21403 H 86.82806917934514 82.85635239882458 77.3381943569263 H 0.0 **** 0.06
21404 H 85.95218791854285 84.0830301046733 76.3901082672723 H 0.0 **** 0.06
21405 H 86.61192799357138 82.64019285669292 75.58417656546996 H 0.0 **** 0.06
21406 C 58.42774766569266 76.97037394846157 70.7580115241741 C 0.0 **** -0.24
21407 H 58.30204162299848 78.02609377996225 70.99958633715862 H 0.0 **** 0.06
21408 H 58.835557502151275 76.44664403607291 71.62256912543083 H 0.0 **** 0.06
21409 H 59.11230571381411 76.8694717653672 69.91538064624142 H 0.0 **** 0.06
21410 H 57.4613015743246 76.5415057160551 70.49467583967196 H 0.0 **** 0.06
21411 C 77.44222868529761 87.16564548717798 51.11037361434035 C 0.0 **** -0.24
21412 H 76.60180109915711 87.2664220355824 51.79692752909534 H 0.0 **** 0.06
21413 H 77.33315783082963 87.88260893267923 50.29576587468341 H 0.0 **** 0.06
21414 H 77.4593024034582 86.15329939016806 50.703907486801995 H 0.0 **** 0.06
21415 H 78.37268588910001 87.35857088478375 51.6437514189671 H 0.0 **** 0.06
21416 C 90.76477213566707 24.58909246683183 110.7561247678835 C 0.0 **** -0.24
21417 H 90.54475144917711 25.344852797605057 111.51014794610751 H 0.0 **** 0.06
21418 H 91.7662972572524 24.191796888714464 110.92193610846726 H 0.0 **** 0.06
21419 H 90.71213668523649 25.039304139113185 109.76445510017302 H 0.0 **** 0.06
21420 H 90.03660285591474 23.781343482040867 110.82876637097988 H 0.0 **** 0.06
21421 C 0.18772589646121673 63.89395945764977 74.95975318124687 C 0.0 **** -0.24
21422 H 0.07658079602094858 64.75797707600992 75.6150745259457 H 0.0 **** 0.06
21423 H 0.9943723639657378 63.260419384215 75.32859621467387 H 0.0 **** 0.06
21424 H 0.42325879885311224 64.23198714057321 73.95091313505789 H 0.0 **** 0.06
21425 H -0.7432441558460425 63.32653659776577 74.94533684507071 H 0.0 **** 0.06
21426 C 83.51342250819673 33.52584945090993 11.778295822428134 C 0.0 **** -0.24
21427 H 84.60024174701854 33.58351351418503 11.724189484154977 H 0.0 **** 0.06
21428 H 83.17629728350613 33.923655295517904 12.736368319836686 H 0.0 **** 0.06
21429 H 83.19967427955342 32.48579984332122 11.685826237231623 H 0.0 **** 0.06
21430 H 83.0780120423689 34.11043012603071 10.968108268147006 H 0.0 **** 0.06
21431 C 73.93969182613498 53.960215255771544 73.7730938273359 C 0.0 **** -0.24
21432 H 74.41824220629923 54.17648633513306 74.72932402404115 H 0.0 **** 0.06
21433 H 74.6786412806054 54.028297290428014 72.97478544969972 H 0.0 **** 0.06
21434 H 73.14371219904626 54.683264780197675 73.59451734826258 H 0.0 **** 0.06
21435 H 73.52000632148818 52.95514715561484 73.79602543708522 H 0.0 **** 0.06
21436 C 15.401438394710038 47.25484794528842 10.263926973689365 C 0.0 **** -0.24
21437 H 16.431307536523153 47.01159522278604 10.002157214659045 H 0.0 **** 0.06
21438 H 15.04934785219092 46.56598278712664 11.03270967854142 H 0.0 **** 0.06
21439 H 14.771373224995845 47.16685408812475 9.379642164639861 H 0.0 **** 0.06
21440 H 15.355467685835475 48.27573085445175 10.643288961682309 H 0.0 **** 0.06
21441 C 48.898675407615656 110.07754923352239 53.94325530902702 C 0.0 **** -0.24
21442 H 49.31038153255611 110.99359226690984 53.51933907734829 H 0.0 **** 0.06
21443 H 48.823414894322354 110.17966816530013 55.026200528748745 H 0.0 **** 0.06
21444 H 49.55336709589392 109.23980142768211 53.70236911742188 H 0.0 **** 0.06
21445 H 47.909209005642765 109.89607741564356 53.52481308058731 H 0.0 **** 0.06
21446 C 70.79207442948723 73.47969772865589 84.9027741482703 C 0.0 **** -0.24
21447 H 69.73330743874635 73.29993676547777 84.71236075474603 H 0.0 **** 0.06
21448 H 70.95260580245679 73.59516430542595 85.97489489800395 H 0.0 **** 0.06
21449 H 71.1045984437477 74.38819225494505 84.38790992460305 H 0.0 **** 0.06
21450 H 71.374838544883 72.63534727245798 84.53646969124465 H 0.0 **** 0.06
21451 C 18.514702929267386 100.0176727567177 62.869409901837685 C 0.0 **** -0.24
21452 H 18.783468580128883 101.06111955943199 63.03129406528086 H 0.0 **** 0.06
21453 H 19.33587099463601 99.37679429210958 63.19225753252496 H 0.0 **** 0.06
21454 H 18.321629025731937 99.85339258806444 61.80953104040151 H 0.0 **** 0.06
21455 H 17.61981394957803 99.77951214762297 63.443508257072466 H 0.0 **** 0.06
21456 C 30.174099381777353 101.31022141165045 108.61822152445389 C 0.0 **** -0.24
21457 H 30.2139966241522 100.23260001490101 108.46103679184876 H 0.0 **** 0.06
21458 H 31.094140934015286 101.64089452746947 109.10042850967012 H 0.0 **** 0.06
21459 H 29.32211408992896 101.55201568772787 109.25394028411046 H 0.0 **** 0.06
21460 H 30.064807222340107 101.81281858177567 107.65829968676196 H 0.0 **** 0.06
21461 C 10.226492192294577 15.266880095315912 104.45420554842539 C 0.0 **** -0.24
21462 H 10.24365636025555 14.449805457591168 105.17518276024329 H 0.0 **** 0.06
21463 H 9.718111295043357 16.126510596402795 104.891458360874 H 0.0 **** 0.06
21464 H 9.695717562408003 14.94894985195208 103.55647763012988 H 0.0 **** 0.06
21465 H 11.24848355147163 15.542254475317748 104.19370344245446 H 0.0 **** 0.06
21466 C 108.0152620026115 61.6660415158874 67.51007967378507 C 0.0 **** -0.24
21467 H 107.12851734510551 61.12282491222845 67.18450582610382 H 0.0 **** 0.06
21468 H 108.88835977803095 61.01756097829934 67.42823182550976 H 0.0 **** 0.06
21469 H 107.88898869199363 61.9766782381011 68.54801931215178 H 0.0 **** 0.06
21470 H 108.15519345298401 62.54539892689104 66.88203156728318 H 0.0 **** 0.06
21471 C 9.91598092418954 99.84254506977322 40.028898558487015 C 0.0 **** -0.24
21472 H 9.313538787296068 100.70570332379872 39.746715981048965 H 0.0 **** 0.06
21473 H 10.111931061505175 99.23241586380509 39.146966789383725 H 0.0 **** 0.06
21474 H 9.377880140462452 99.24987488915727 40.76901635964384 H 0.0 **** 0.06
21475 H 10.861530204568965 100.18242375438571 40.45306461093787 H 0.0 **** 0.06
21476 C 86.67214421410438 100.87650157115087 27.33305571328839 C 0.0 **** -0.24
21477 H 86.17214378957681 101.45161182319129 26.553852597559796 H 0.0 **** 0.06
21478 H 86.20840756387679 101.0903924985191 28.29591796317925 H 0.0 **** 0.06
21479 H 87.72659397912616 101.15311703532149 27.36784629584656 H 0.0 **** 0.06
21480 H 86.58301005453279 99.81217417186701 27.11368602842728 H 0.0 **** 0.06
21481 C 20.544246857037166 10.753832997511918 88.07278583604608 C 0.0 **** -0.24
21482 H 21.405640728553635 10.266471453775099 87.61508167242442 H 0.0 **** 0.06
21483 H 20.6552981664818 11.835006254731631 87.9949354190764 H 0.0 **** 0.06
21484 H 20.481073180068563 10.468334677370487 89.12259796330531 H 0.0 **** 0.06
21485 H 19.635479898320938 10.443448708697145 87.55619219674804 H 0.0 **** 0.06
21486 C 74.76486182222698 77.81842470702591 60.66293398351229 C 0.0 **** -0.24
21487 H 74.56818554873234 78.67109920116746 61.31314118317323 H 0.0 **** 0.06
21488 H 75.69087549594877 77.98579317193588 60.11400307594897 H 0.0 **** 0.06
21489 H 73.94023827175221 77.70203576001666 59.95788967833363 H 0.0 **** 0.06
21490 H 74.85655204019722 76.91532737318192 61.26583016844239 H 0.0 **** 0.06
21491 C 104.91143971756179 92.41840901133247 75.13811912162586 C 0.0 **** -0.24
21492 H 105.22269604924446 93.39323481619394 74.76184939093228 H 0.0 **** 0.06
21493 H 105.53787999700612 92.13898835132198 75.9860905103222 H 0.0 **** 0.06
21494 H 105.01550832879647 91.67437999713712 74.34951263430912 H 0.0 **** 0.06
21495 H 103.86980195995449 92.46777942268443 75.45621832455072 H 0.0 **** 0.06
21496 C 3.2129413638108417 35.59396497245768 99.34743191798272 C 0.0 **** -0.24
21497 H 3.5818098594772607 35.291160200812335 98.36725741577538 H 0.0 **** 0.06
21498 H 2.198964358034175 35.98388495427027 99.2481904522536 H 0.0 **** 0.06
21499 H 3.861939540188132 36.36854681663836 99.756471139728 H 0.0 **** 0.06
21500 H 3.2073195215393184 34.7325219802348 100.01481941308772 H 0.0 **** 0.06
21501 C 75.04799127105105 79.92787446499239 49.69950154068533 C 0.0 **** -0.24
21502 H 74.18526633894498 79.72921365920891 49.06520176399698 H 0.0 **** 0.06
21503 H 75.95269678775401 79.93415584014826 49.091894607864276 H 0.0 **** 0.06
21504 H 75.12731213480873 79.15005315527065 50.45983042190721 H 0.0 **** 0.06
21505 H 74.92769114546215 80.89702106666005 50.18277830856752 H 0.0 **** 0.06
21506 C 57.153559289079105 27.93823279611904 78.39371016571383 C 0.0 **** -0.24
21507 H 56.346998222491194 27.939321941222303 79.12753769230538 H 0.0 **** 0.06
21508 H 58.042137445299815 28.393519441312193 78.8297727847684 H 0.0 **** 0.06
21509 H 56.84573338343121 28.507374970070202 77.51630082523792 H 0.0 **** 0.06
21510 H 57.376604164219046 26.91158110021486 78.10095415903875 H 0.0 **** 0.06
21511 C 33.99886873231695 55.54806367228849 53.12784246073958 C 0.0 **** -0.24
21512 H 33.56367874684965 54.71070900123823 52.583643514601974 H 0.0 **** 0.06
21513 H 33.36699276345337 56.428410795756804 53.00444673772359 H 0.0 **** 0.06
21514 H 34.99393924725797 55.75754943039772 52.7364346473875 H 0.0 **** 0.06
21515 H 34.06912641818613 55.29671514070424 54.1860057236222 H 0.0 **** 0.06
21516 C 8.574469650312523 92.30003089383257 93.82064948267886 C 0.0 **** -0.24
21517 H 8.7289675169764 92.8896528189598 94.72497972569974 H 0.0 **** 0.06
21518 H 7.811861938696143 92.77635078880564 93.20342777733798 H 0.0 **** 0.06
21519 H 8.248229201379033 91.2964615399764 94.09257672371106 H 0.0 **** 0.06
21520 H 9.50931832016279 92.23964941896628 93.26295081891969 H 0.0 **** 0.06
21521 C 62.91840525680874 88.36307027402415 41.43023534601912 C 0.0 **** -0.24
21522 H 62.44977862505738 88.12594436400775 40.47466004396449 H 0.0 **** 0.06
21523 H 62.98813504488672 87.45818860837949 42.034281438509765 H 0.0 **** 0.06
21524 H 62.31663179913136 89.10516545297742 41.954908752634594 H 0.0 **** 0.06
21525 H 63.91737949042829 88.7621385728732 41.25590324979595 H 0.0 **** 0.06
21526 C 28.02891403510378 82.31078829143155 106.12456905981045 C 0.0 **** -0.24
21527 H 27.577539862225166 82.65774803243363 107.0538731042558 H 0.0 **** 0.06
21528 H 27.272489010719994 82.28930877877366 105.33958907180454 H 0.0 **** 0.06
21529 H 28.43113486472211 81.30830334953964 106.26889872222718 H 0.0 **** 0.06
21530 H 28.83365769425717 82.98787371388875 105.83646013273605 H 0.0 **** 0.06
21531 C 35.09467372901537 25.30824848874198 37.7713774111256 C 0.0 **** -0.24
21532 H 34.02181523605367 25.45781729956633 37.64916215729801 H 0.0 **** 0.06
21533 H 35.27035658090256 24.504195656536865 38.4863769459902 H 0.0 **** 0.06
21534 H 35.54842409119817 26.228852422875832 38.13935536232361 H 0.0 **** 0.06
21535 H 35.53553781056564 25.04535897282142 36.810539951240116 H 0.0 **** 0.06
21536 C 9.748665107045838 54.96423230057138 101.3850198926649 C 0.0 **** -0.24
21537 H 9.392383523005009 54.65798452324361 102.36861455896405 H 0.0 **** 0.06
21538 H 10.64801597195401 55.570089488790984 101.49765134963525 H 0.0 **** 0.06
21539 H 8.976485898589317 55.54741325543324 100.88437538749736 H 0.0 **** 0.06
21540 H 9.978104023636291 54.07903141932445 100.7908810439526 H 0.0 **** 0.06
21541 C 78.83278489939926 21.95041935848198 89.6354525042886 C 0.0 **** -0.24
21542 H 79.80564280651782 22.08546216596602 89.1630632036842 H 0.0 **** 0.06
21543 H 78.97225490405009 21.656786299862233 90.67684223928455 H 0.0 **** 0.06
21544 H 78.27820338362335 21.172611447329587 89.10980246361399 H 0.0 **** 0.06
21545 H 78.27548845406739 22.88613612167464 89.59267942327037 H 0.0 **** 0.06
21546 C 65.5558575975422 34.00750491546785 110.50825809381934 C 0.0 **** -0.24
21547 H 64.90684093076156 33.14707794020052 110.67271946772937 H 0.0 **** 0.06
21548 H 65.8202043398419 34.06638969781545 109.45156977352445 H 0.0 **** 0.06
21549 H 66.46210090830188 33.89744957792834 111.10390280348255 H 0.0 **** 0.06
21550 H 65.0339516837011 34.91793492708376 110.80411477852601 H 0.0 **** 0.06
21551 C 92.45722729766612 68.8050921034859 33.87851633862721 C 0.0 **** -0.24
21552 H 92.45412273832471 68.47245218340571 34.91664436081416 H 0.0 **** 0.06
21553 H 93.09437981807804 68.14583925507736 33.288143464567696 H 0.0 **** 0.06
21554 H 92.84001028980526 69.82411578660293 33.82480757219315 H 0.0 **** 0.06
21555 H 91.4412593260185 68.77685596090062 33.48428601525292 H 0.0 **** 0.06
21556 C 4.4254827405056005 62.446914823056375 78.74416092795349 C 0.0 **** -0.24
21557 H 3.9331711994655194 61.67295184129958 79.33383238855797 H 0.0 **** 0.06
21558 H 3.725342646869251 63.263127394232214 78.56025408680654 H 0.0 **** 0.06
21559 H 4.751637207327846 62.026724058982055 77.79354447415125 H 0.0 **** 0.06
21560 H 5.289510019216593 62.82499076556975 79.29121047558158 H 0.0 **** 0.06
21561 C 89.42188574136763 41.76530534486943 8.947230501636838 C 0.0 **** -0.24
21562 H 89.69996135377933 41.46036329109447 7.938007004649421 H 0.0 **** 0.06
21563 H 88.73780009816342 42.6120355724299 8.895264529034662 H 0.0 **** 0.06
21564 H 90.31698581982701 42.05424408065289 9.49772479747213 H 0.0 **** 0.06
21565 H 88.93423752997549 40.93364708032064 9.455465159478905 H 0.0 **** 0.06
21566 C 8.675810946172232 88.57208110395004 0.7188183053785622 C 0.0 **** -0.24
21567 H 8.139498979519132 87.62359241878107 0.7054247605554309 H 0.0 **** 0.06
21568 H 9.556518417777243 88.50094260318298 0.08052809249097947 H 0.0 **** 0.06
21569 H 8.98360617984219 88.80051707368727 1.7389873167115866 H 0.0 **** 0.06
21570 H 8.023054750679652 89.3642731333752 0.35115690366545493 H 0.0 **** 0.06
21571 C 62.633328375633866 25.01832897321401 46.316221851559646 C 0.0 **** -0.24
21572 H 63.06408509615868 24.563857391327797 45.42417367581214 H 0.0 **** 0.06
21573 H 63.045657045466356 26.018628862379867 46.45010969113372 H 0.0 **** 0.06
21574 H 62.873446223684525 24.407228785594167 47.18696622938518 H 0.0 **** 0.06
21575 H 61.551158928924664 25.08310008395439 46.20580132699712 H 0.0 **** 0.06
21576 C 83.65379768603697 28.01437183158683 0.49696083234204025 C 0.0 **** -0.24
21577 H 82.6985883238182 27.632454840806474 0.8581356514436607 H 0.0 **** 0.06
21578 H 83.99376670019802 28.816852776674892 1.1510480573184338 H 0.0 **** 0.06
21579 H 83.53025934721319 28.397793635040472 -0.5158741648682792 H 0.0 **** 0.06
21580 H 84.38894707535746 27.209850806683733 0.4937973126755537 H 0.0 **** 0.06
21581 C 103.68955070467766 33.771161661957194 102.23631855083033 C 0.0 **** -0.24
21582 H 104.73111395165245 34.01263796426318 102.02525953050147 H 0.0 **** 0.06
21583 H 103.6389836957481 33.110738009099464 103.10331994877546 H 0.0 **** 0.06
21584 H 103.25044104277085 33.27190099085925 101.37258756304416 H 0.0 **** 0.06
21585 H 103.13895750563852 34.688248700863085 102.44514194333301 H 0.0 **** 0.06
21586 C 24.985806751628424 18.444314503976102 52.395111268348955 C 0.0 **** -0.24
21587 H 25.97889135606016 18.87391092012419 52.52519431414936 H 0.0 **** 0.06
21588 H 24.85162178613883 17.622051369915198 53.098957513305606 H 0.0 **** 0.06
21589 H 24.882827665199795 18.07077792343773 51.37623175145609 H 0.0 **** 0.06
21590 H 24.232171346954885 19.20964076110056 52.579965580326586 H 0.0 **** 0.06
21591 C 33.44072457744542 25.852556278171022 58.19889507711872 C 0.0 **** -0.24
21592 H 33.40349877311564 25.02474142653608 58.90747575370375 H 0.0 **** 0.06
21593 H 33.77300708557914 26.75524754239754 58.7125385311291 H 0.0 **** 0.06
21594 H 32.44718374387185 26.016836120186838 57.781333709501496 H 0.0 **** 0.06
21595 H 34.137551307285264 25.61248856158869 57.39578877300801 H 0.0 **** 0.06
21596 C 48.94397464750466 110.64799601107771 78.32297043393801 C 0.0 **** -0.24
21597 H 48.52065578860737 109.64974702720752 78.21358204457493 H 0.0 **** 0.06
21598 H 48.669830339966836 111.25588091152697 77.46000772173637 H 0.0 **** 0.06
21599 H 50.02972096834492 110.57705873812452 78.38666151169345 H 0.0 **** 0.06
21600 H 48.55667062759403 111.10950061729726 79.23163640922793 H 0.0 **** 0.06
21601 C 13.323910787605456 50.08034151460731 33.59889165276626 C 0.0 **** -0.24
21602 H 13.782194443579584 50.8738067918822 33.00837434799701 H 0.0 **** 0.06
21603 H 12.367649967113266 49.803856275561486 33.155136233371664 H 0.0 **** 0.06
21604 H 13.164577238858527 50.43198467891551 34.61776877448895 H 0.0 **** 0.06
21605 H 13.982769276819994 49.2119117846932 33.613035392968804 H 0.0 **** 0.06
21606 C 31.511377046898133 23.442427218738715 71.08954861053473 C 0.0 **** -0.24
21607 H 31.18632453266636 24.477161116676655 70.97577069365371 H 0.0 **** 0.06
21608 H 32.44536496938153 23.29360126361044 70.5491672205118 H 0.0 **** 0.06
21609 H 30.747277671242387 22.777183034474263 70.68621487758057 H 0.0 **** 0.06
21610 H 31.663103341295283 23.223735215366816 72.14590347617576 H 0.0 **** 0.06
21611 C 38.61759333259033 8.622487408909478 83.01512192545806 C 0.0 **** -0.24
21612 H 38.72752320099016 7.77716406330552 82.3350016027469 H 0.0 **** 0.06
21613 H 39.46869410787889 9.29368254565955 82.90113386145379 H 0.0 **** 0.06
21614 H 38.57618930806268 8.258544490529289 84.0417752237438 H 0.0 **** 0.06
21615 H 37.69730549700776 9.158423477040259 82.78250943537012 H 0.0 **** 0.06
21616 C 23.094653531852188 73.62716926342752 64.62586487567665 C 0.0 **** -0.24
21617 H 22.649263177666896 74.60814992115364 64.4645234855175 H 0.0 **** 0.06
21618 H 23.946270031798278 73.72077079496569 65.3008959129965 H 0.0 **** 0.06
21619 H 23.43062999673777 73.21986423884542 63.67111816832312 H 0.0 **** 0.06
21620 H 22.353746401846102 72.95890965443799 65.06538675363907 H 0.0 **** 0.06
21621 C 27.98632633121275 21.615681965072724 72.44890126033582 C 0.0 **** -0.24
21622 H 27.221067880706812 21.78525794960518 71.692823805991 H 0.0 **** 0.06
21623 H 27.541227898565836 21.120272449406002 73.31201744570754 H 0.0 **** 0.06
21624 H 28.410468505660106 22.57159121781018 72.75752674325045 H 0.0 **** 0.06
21625 H 28.773318464522447 20.986444665567774 72.03406936840241 H 0.0 **** 0.06
21626 C 16.412963871814853 96.38287871807225 73.86379355678856 C 0.0 **** -0.24
21627 H 15.59787340928132 96.37757957521406 74.5872140226411 H 0.0 **** 0.06
21628 H 16.007914019984327 96.26666782647696 72.8587749726967 H 0.0 **** 0.06
21629 H 17.0935839920691 95.55869110652104 74.07934821206511 H 0.0 **** 0.06
21630 H 16.95314924858252 97.32665200819389 73.93245521369364 H 0.0 **** 0.06
21631 C 93.49216358402577 16.055817961769378 107.54243427723736 C 0.0 **** -0.24
21632 H 93.86534105361386 16.507963492455136 108.46138298643388 H 0.0 **** 0.06
21633 H 94.29826275303867 16.005715968678818 106.80959410704406 H 0.0 **** 0.06
21634 H 92.67678284998567 16.660189403860354 107.14610095226638 H 0.0 **** 0.06
21635 H 93.13024190664146 15.05032500761299 107.75377825829199 H 0.0 **** 0.06
21636 C 95.11374305664685 1.326408835492117 80.4250727214574 C 0.0 **** -0.24
21637 H 94.71507929935387 1.7966204328566562 81.32398150014961 H 0.0 **** 0.06
21638 H 95.17289432337043 0.24818107996756567 80.57497531942794 H 0.0 **** 0.06
21639 H 96.11043010792969 1.72021308868824 80.22170372088972 H 0.0 **** 0.06
21640 H 94.4589590656044 1.5414802492711033 79.58151367327284 H 0.0 **** 0.06
21641 C 71.76362114658548 101.23901081169862 102.52633450437597 C 0.0 **** -0.24
21642 H 71.88573434883494 101.14347937577526 103.60553831893229 H 0.0 **** 0.06
21643 H 71.26343300550917 102.1812414964435 102.30025057698612 H 0.0 **** 0.06
21644 H 71.16214793923643 100.40925977510102 102.15413568063775 H 0.0 **** 0.06
21645 H 72.74203395373496 101.22264850172496 102.04695224728958 H 0.0 **** 0.06
21646 C 1.1482314529878295 36.302367267023584 22.769917673273458 C 0.0 **** -0.24
21647 H 0.7083829580440266 37.13276220653216 22.217583284177746 H 0.0 **** 0.06
21648 H 0.7559123006350603 36.292844127006376 23.786224055723448 H 0.0 **** 0.06
21649 H 2.23211995562437 36.42068014686025 22.79965970169451 H 0.0 **** 0.06
21650 H 0.8984940075583125 35.36403824564232 22.274121732407167 H 0.0 **** 0.06
21651 C 10.14592640740841 24.120805107282422 107.44430687652627 C 0.0 **** -0.24
21652 H 10.031194361234242 25.190539553559574 107.26750603785727 H 0.0 **** 0.06
21653 H 9.73770056966518 23.86857293385549 108.42275273803287 H 0.0 **** 0.06
21654 H 11.20404269887834 23.86004475969736 107.41436181417828 H 0.0 **** 0.06
21655 H 9.613384824826738 23.565486324258586 106.67296377137326 H 0.0 **** 0.06
21656 C 71.89565981881066 36.948330327706074 29.670713245541577 C 0.0 **** -0.24
21657 H 71.70114541099645 36.59253244555721 30.68259305825086 H 0.0 **** 0.06
21658 H 71.75423207261446 36.12968011616588 28.964362902773814 H 0.0 **** 0.06
21659 H 72.92063542771507 37.313488274287586 29.60491496187427 H 0.0 **** 0.06
21660 H 71.20577224683018 37.75838440099496 29.43181091471149 H 0.0 **** 0.06
21661 C 4.052542059824759 63.2400259656644 33.82369258665079 C 0.0 **** -0.24
21662 H 4.459975542126017 64.23654466276714 33.65292906273592 H 0.0 **** 0.06
21663 H 4.122161362310237 62.99677599103693 34.88459805204758 H 0.0 **** 0.06
21664 H 4.6213001195270635 62.51147487762377 33.24530314273852 H 0.0 **** 0.06
21665 H 3.0088738733715843 63.21593206443585 33.51295017575774 H 0.0 **** 0.06
21666 C 103.6214969530163 28.203420608527075 13.79702770484424 C 0.0 **** -0.24
21667 H 103.83690014585257 27.91688800081625 14.82558503281129 H 0.0 **** 0.06
21668 H 102.86056407035599 27.53848721921623 13.38654439758281 H 0.0 **** 0.06
21669 H 104.53050587966534 28.128543877425642 13.200611781413357 H 0.0 **** 0.06
21670 H 103.25586316538164 29.229791553114588 13.774771806577235 H 0.0 **** 0.06
21671 C 40.88969054114955 83.84911904056145 60.26949470758706 C 0.0 **** -0.24
21672 H 40.940410878665716 82.78946866813595 60.5172671899589 H 0.0 **** 0.06
21673 H 41.70370324157591 84.37737764080947 60.766638492577115 H 0.0 **** 0.06
21674 H 39.9351113492296 84.25508145792696 60.60267898143559 H 0.0 **** 0.06
21675 H 40.980391145209325 83.97408485672372 59.19036696263268 H 0.0 **** 0.06
21676 C 8.31130388457576 38.082770799585745 88.13787234621577 C 0.0 **** -0.24
21677 H 7.468574470527127 38.45144229485001 87.55216060079988 H 0.0 **** 0.06
21678 H 8.10627092038995 38.22495685436897 89.19852747304986 H 0.0 **** 0.06
21679 H 9.211266070902475 38.633431969618414 87.86432881236249 H 0.0 **** 0.06
21680 H 8.459088578087833 37.02222625034918 87.93445978844954 H 0.0 **** 0.06
21681 C 32.238323011690056 5.197706989472181 57.08037305070856 C 0.0 **** -0.24
21682 H 31.664890266137434 4.362226176199982 56.67990159737605 H 0.0 **** 0.06
21683 H 31.62160279815592 6.096847425801627 57.07553343612246 H 0.0 **** 0.06
21684 H 33.12317310924692 5.3593974986657145 56.46534688981887 H 0.0 **** 0.06
21685 H 32.54348698962974 4.9724181949420085 58.1029412435281 H 0.0 **** 0.06
21686 C 50.1702424705241 45.9516421314147 105.91902985787186 C 0.0 **** -0.24
21687 H 49.35601194056528 45.25651004314889 106.1254730479591 H 0.0 **** 0.06
21688 H 49.79440663640759 46.78397921510188 105.32378776495852 H 0.0 **** 0.06
21689 H 50.955705496234714 45.43550268938762 105.36655844028445 H 0.0 **** 0.06
21690 H 50.57310879309267 46.32787687347249 106.85837792040391 H 0.0 **** 0.06
21691 C 98.35870082125888 46.515555723706655 96.69028069383921 C 0.0 **** -0.24
21692 H 97.5289904215493 46.27514659386202 97.35516477693035 H 0.0 **** 0.06
21693 H 99.29507869069795 46.1988166623826 97.14920069334907 H 0.0 **** 0.06
21694 H 98.38443623653413 47.59077110290924 96.51494878629435 H 0.0 **** 0.06
21695 H 98.22381083621688 45.99596835219057 95.7410987103016 H 0.0 **** 0.06
21696 C 92.26953387745364 110.36201890396745 21.728116829953763 C 0.0 **** -0.24
21697 H 92.04133563631122 111.0656369565778 20.928378834267278 H 0.0 **** 0.06
21698 H 91.34075499190608 109.99278011206604 22.163169970326607 H 0.0 **** 0.06
21699 H 92.85755539969433 110.86406461825999 22.496810886425465 H 0.0 **** 0.06
21700 H 92.83895366342135 109.5251969532026 21.323315797981465 H 0.0 **** 0.06
21701 C 26.853390951581396 5.6919496626542525 86.75438738803598 C 0.0 **** -0.24
21702 H 26.41376684807158 4.865795021990648 87.31206096967355 H 0.0 **** 0.06
21703 H 26.07655387797663 6.194373890424883 86.17770046528716 H 0.0 **** 0.06
21704 H 27.61703879492338 5.3091599747485105 86.07836395120432 H 0.0 **** 0.06
21705 H 27.305109246279038 6.399753514051843 87.4498153496395 H 0.0 **** 0.06
21706 C 95.23735792401699 105.88081545632491 101.26596599762382 C 0.0 **** -0.24
21707 H 95.93016125395962 105.08775206519323 100.98364922180554 H 0.0 **** 0.06
21708 H 94.36139559069123 105.84597967163782 100.61701509899804 H 0.0 **** 0.06
21709 H 95.72920071256205 106.84826194515257 101.16114361469171 H 0.0 **** 0.06
21710 H 94.9280007745663 105.740612178346 102.30171496737078 H 0.0 **** 0.06
21711 C 15.287701463309233 46.79410150496441 95.41437829819073 C 0.0 **** -0.24
21712 H 14.209735985139915 46.92889136152557 95.32858887091565 H 0.0 **** 0.06
21713 H 15.512237231727397 46.22822696423922 96.31908127469022 H 0.0 **** 0.06
21714 H 15.771876745089827 47.76888148671293 95.4656908001285 H 0.0 **** 0.06
21715 H 15.656164044533881 46.250736570708945 94.54466594838068 H 0.0 **** 0.06
21716 C 84.76100316545532 92.84741698020119 19.755266261891222 C 0.0 **** -0.24
21717 H 85.11069994500178 92.56842867958551 18.76057108517233 H 0.0 **** 0.06
21718 H 85.58658296457688 93.28005639409298 20.32183395231624 H 0.0 **** 0.06
21719 H 84.38991857935454 91.96125279588074 20.270570076740796 H 0.0 **** 0.06
21720 H 83.95798146095333 93.57924975776109 19.665412606475314 H 0.0 **** 0.06
21721 C 41.18594878855532 2.4487993704975253 2.1030252662210955 C 0.0 **** -0.24
21722 H 40.38420899104824 3.063106868459144 2.5141741227105285 H 0.0 **** 0.06
21723 H 40.88566073236092 2.0644415848437774 1.1278919716398832 H 0.0 **** 0.06
21724 H 41.38679204447584 1.616002732450653 2.776862390503311 H 0.0 **** 0.06
21725 H 42.087084287778 3.053415315977375 1.9945394779322783 H 0.0 **** 0.06
21726 C 23.844167343095023 66.95874880423793 62.02942223225668 C 0.0 **** -0.24
21727 H 24.444186863389746 66.64383953372786 61.17535286463928 H 0.0 **** 0.06
21728 H 23.818435491465607 66.15887457691343 62.769917241565 H 0.0 **** 0.06
21729 H 22.830199947323337 67.18042609183698 61.6980327614844 H 0.0 **** 0.06
21730 H 24.28522099742034 67.85134723660599 62.472422700112986 H 0.0 **** 0.06
21731 C 72.86514526272498 30.329673649772587 41.77027077200216 C 0.0 **** -0.24
21732 H 72.73915748275402 30.72327553153434 40.76208610341445 H 0.0 **** 0.06
21733 H 71.99809247408123 30.594329070615913 42.374821565234015 H 0.0 **** 0.06
21734 H 73.76416354076878 30.756007962133026 42.21654868399804 H 0.0 **** 0.06
21735 H 72.9613342940768 29.24468471836184 41.72724251482998 H 0.0 **** 0.06
21736 C 15.668534210314476 33.95405313646854 2.021187293249909 C 0.0 **** -0.24
21737 H 15.993175747357299 34.05582332952607 0.9853912427787463 H 0.0 **** 0.06
21738 H 15.079989024682078 34.82707551735756 2.304736691975563 H 0.0 **** 0.06
21739 H 16.54184617179682 33.87778389180867 2.6688005586626105 H 0.0 **** 0.06
21740 H 15.060113927555733 33.05580020626677 2.1238329843905603 H 0.0 **** 0.06
21741 C 36.22610482546514 98.71891826243201 41.045902847763024 C 0.0 **** -0.24
21742 H 35.79828367745637 98.90328047711424 40.061166689354664 H 0.0 **** 0.06
21743 H 36.65592182154671 97.71739259434435 41.072818249518484 H 0.0 **** 0.06
21744 H 35.445523678209156 98.79999476155007 41.80217289983241 H 0.0 **** 0.06
21745 H 37.00555738494495 99.45450945144722 41.24740743673135 H 0.0 **** 0.06
21746 C 43.151007055564776 103.66384156706422 15.148204332200834 C 0.0 **** -0.24
21747 H 44.029801518068666 103.87738204312751 14.539926041911599 H 0.0 **** 0.06
21748 H 42.287848711588765 104.18815812958943 14.736961586430766 H 0.0 **** 0.06
21749 H 43.32568877141904 103.99744025438696 16.17108504125332 H 0.0 **** 0.06
21750 H 42.95949712564453 102.59058051097028 15.144279024567084 H 0.0 **** 0.06
21751 C 56.1066689420544 5.942899242540776 58.1056312402128 C 0.0 **** -0.24
21752 H 55.180475775376806 5.555664495690426 57.68010540253067 H 0.0 **** 0.06
21753 H 56.52331672685369 6.700386670270781 57.44194220148182 H 0.0 **** 0.06
21754 H 56.82034135979262 5.127096673762754 58.22063810968302 H 0.0 **** 0.06
21755 H 55.901021571795184 6.3855046802493565 59.07997834943791 H 0.0 **** 0.06
21756 C 67.96020566156767 40.486346595115634 102.8603213296409 C 0.0 **** -0.24
21757 H 68.07869586099412 41.46479707509634 102.39230254742121 H 0.0 **** 0.06
21758 H 67.47601390247064 39.80573716938846 102.15981158951833 H 0.0 **** 0.06
21759 H 67.34612740618309 40.584819672540284 103.75506243368847 H 0.0 **** 0.06
21760 H 68.93951107645137 40.092880174711624 103.13172837215424 H 0.0 **** 0.06
21761 C 52.84508683217064 57.029789762655376 15.974723767701338 C 0.0 **** -0.24
21762 H 52.062613989176555 57.6487027488805 16.413071421085277 H 0.0 **** 0.06
21763 H 52.404063241416 56.11767527268328 15.573294999317206 H 0.0 **** 0.06
21764 H 53.57670991297823 56.77360499250668 16.741043391149475 H 0.0 **** 0.06
21765 H 53.33651013765751 57.58016016024405 15.172837704697443 H 0.0 **** 0.06
21766 C 31.266040084718696 51.21731137931081 63.47841238839982 C 0.0 **** -0.24
21767 H 31.721812277603732 52.05926924415922 63.99936861447202 H 0.0 **** 0.06
21768 H 30.18402235421567 51.347322983559636 63.45508106156788 H 0.0 **** 0.06
21769 H 31.509848670192866 50.29264010798918 64.00254519536131 H 0.0 **** 0.06
21770 H 31.64854680699102 51.170516766810366 62.4596113672506 H 0.0 **** 0.06
21771 C 77.10476178398491 35.028190017813245 20.536415109459796 C 0.0 **** -0.24
21772 H 77.84737516753545 34.31772365821067 20.898968036730224 H 0.0 **** 0.06
21773 H 77.60917161151936 35.87686456834149 20.074946864359305 H 0.0 **** 0.06
21774 H 76.49780949205896 35.37599103173852 21.372839131724476 H 0.0 **** 0.06
21775 H 76.46467056237583 34.54147819133766 19.800489459507986 H 0.0 **** 0.06
21776 C 81.98129562196864 99.2798114942284 91.95741414499238 C 0.0 **** -0.24
21777 H 82.5480176179122 99.8584917839625 91.22790332271646 H 0.0 **** 0.06
21778 H 81.8456218127968 99.8718065143315 92.86305441192277 H 0.0 **** 0.06
21779 H 82.5244177563223 98.36578556955885 92.19635693864814 H 0.0 **** 0.06
21780 H 81.00702889958654 99.02590972616468 91.54000910564986 H 0.0 **** 0.06
21781 C 10.379004251667496 51.2909877506917 74.38610319989397 C 0.0 **** -0.24
21782 H 10.102260045679827 52.33884307701466 74.50901239965043 H 0.0 **** 0.06
21783 H 11.451824849912 51.178300513531255 74.54260011333366 H 0.0 **** 0.06
21784 H 10.12216544752846 50.96426206783677 73.37848725928532 H 0.0 **** 0.06
21785 H 9.83905361604414 50.685530767184126 75.11305629861161 H 0.0 **** 0.06
21786 C 18.39917110346991 37.085641363915514 5.828054401298317 C 0.0 **** -0.24
21787 H 17.679602912476696 36.27439742257378 5.937318322231135 H 0.0 **** 0.06
21788 H 18.612058170876367 37.24182899914131 4.769719229579806 H 0.0 **** 0.06
21789 H 19.319885744821477 36.82612305350143 6.349593925753311 H 0.0 **** 0.06
21790 H 17.983824995539123 37.99889850995685 6.253991862834937 H 0.0 **** 0.06
21791 C 11.270761774866386 104.98301402840767 99.20400444553337 C 0.0 **** -0.24
21792 H 11.364690768744907 103.94054534807277 99.50677512234017 H 0.0 **** 0.06
21793 H 10.246577897271933 105.31767798775199 99.37117857947092 H 0.0 **** 0.06
21794 H 11.516083256471774 105.07710844354472 98.14552940614422 H 0.0 **** 0.06
21795 H 11.954361347250995 105.59569367276791 99.79075733436423 H 0.0 **** 0.06
21796 C 72.05403894391753 93.39566933035877 58.240601801256275 C 0.0 **** -0.24
21797 H 72.20021805770216 93.9140858700895 57.292620406653576 H 0.0 **** 0.06
21798 H 72.4221045644673 94.01800892327697 59.055480195030825 H 0.0 **** 0.06
21799 H 72.6014216045441 92.45292117435815 58.22580669930628 H 0.0 **** 0.06
21800 H 70.99216617721572 93.196311184069 58.385018878534225 H 0.0 **** 0.06
21801 C 43.32304503181454 53.47614537301229 98.05589695668544 C 0.0 **** -0.24
21802 H 42.74919332900741 53.591097603737865 97.13623726460719 H 0.0 **** 0.06
21803 H 43.55798481954446 52.4223586044987 98.20808930469178 H 0.0 **** 0.06
21804 H 42.73761754381805 53.84321743280816 98.89831101285915 H 0.0 **** 0.06
21805 H 44.247898747492464 54.04775663732562 97.97964153624207 H 0.0 **** 0.06
21806 C 62.10015438939982 73.11189015693449 41.35377603458528 C 0.0 **** -0.24
21807 H 61.47740911934636 72.75333850874699 42.17285279137832 H 0.0 **** 0.06
21808 H 61.54361833583744 73.84243946745862 40.76736404792081 H 0.0 **** 0.06
21809 H 62.38102622494627 72.27292988382092 40.716689360675616 H 0.0 **** 0.06
21810 H 62.998777462898175 73.57814352590873 41.75752606962374 H 0.0 **** 0.06
21811 C 26.007731045359634 91.94514682977757 49.968569030214674 C 0.0 **** -0.24
21812 H 25.680538689827472 90.92249130729627 50.16140749968808 H 0.0 **** 0.06
21813 H 25.228202250791355 92.64109384450137 50.27984123087033 H 0.0 **** 0.06
21814 H 26.20186727615004 92.0683861747936 48.90320810176615 H 0.0 **** 0.06
21815 H 26.92027720841446 92.14552606393312 50.53049110849537 H 0.0 **** 0.06
21816 C 51.235674298261635 109.62685415516957 22.392119724805667 C 0.0 **** -0.24
21817 H 51.66234990990624 109.72218808439324 21.39323828214907 H 0.0 **** 0.06
21818 H 51.916111571948235 110.06632945440464 23.121108944467892 H 0.0 **** 0.06
21819 H 51.08493842182579 108.57226070102347 22.623230269300393 H 0.0 **** 0.06
21820 H 50.27852786588602 110.14759148006334 22.428162782866224 H 0.0 **** 0.06
21821 C 84.18439770188243 10.471474293024158 54.210713319629576 C 0.0 **** -0.24
21822 H 84.1874991981953 11.549134136135237 54.370576747066195 H 0.0 **** 0.06
21823 H 83.45422422683019 10.221009690750433 53.44022063073959 H 0.0 **** 0.06
21824 H 83.91998462250424 9.96612696521096 55.13937876733456 H 0.0 **** 0.06
21825 H 85.1754881514633 10.148867764299188 53.89061096840135 H 0.0 **** 0.06
21826 C 43.46927517162851 75.7359107849075 26.29682664851788 C 0.0 **** -0.24
21827 H 42.994738863238524 75.31431272761154 25.41029456200812 H 0.0 **** 0.06
21828 H 44.50317072377777 75.99390488987297 26.067912361527192 H 0.0 **** 0.06
21829 H 43.4462433376047 75.00308765478633 27.103025443427214 H 0.0 **** 0.06
21830 H 42.93062843623329 76.63242525576914 26.60529103274348 H 0.0 **** 0.06
21831 C 101.58117002681308 64.64629019859467 25.623603716162748 C 0.0 **** -0.24
21832 H 100.98876729561088 63.8671273353435 25.144552633939032 H 0.0 **** 0.06
21833 H 101.77545806275327 65.44685083686306 24.90891803587596 H 0.0 **** 0.06
21834 H 102.52744412723355 64.22623477779285 25.965148038020583 H 0.0 **** 0.06
21835 H 101.03232850924111 65.04678968227583 26.47686508487918 H 0.0 **** 0.06
21836 C 49.19633278502965 97.02295809457668 100.54228889043536 C 0.0 **** -0.24
21837 H 49.938421088756336 96.23402178685343 100.41305162859099 H 0.0 **** 0.06
21838 H 49.47992019244768 97.88950962645066 99.9453623168677 H 0.0 **** 0.06
21839 H 49.14665378753889 97.3048374715822 101.59331537406933 H 0.0 **** 0.06
21840 H 48.22153436075388 96.65951758856164 100.21642882434246 H 0.0 **** 0.06
21841 C 9.558146894625565 50.71514750220584 98.0898517844472 C 0.0 **** -0.24
21842 H 10.444742695376505 50.13082270783568 97.84248529221432 H 0.0 **** 0.06
21843 H 9.443078238539726 50.75911619920652 99.17377188671851 H 0.0 **** 0.06
21844 H 8.679376645413441 50.24453132541095 97.64958826429134 H 0.0 **** 0.06
21845 H 9.66743617451425 51.72424378594073 97.6941041229918 H 0.0 **** 0.06
21846 C 22.002781870010892 76.9860118900288 62.405225588587314 C 0.0 **** -0.24
21847 H 22.631584980417983 76.1199402521808 62.202180697582534 H 0.0 **** 0.06
21848 H 21.669946637681846 77.42333303447307 61.462954530405725 H 0.0 **** 0.06
21849 H 22.57350079310808 77.7259295661672 62.9669537319337 H 0.0 **** 0.06
21850 H 21.135858878174048 76.67623002604009 62.98865462888212 H 0.0 **** 0.06
21851 C 85.36985985631469 75.1827437955256 30.923645778304376 C 0.0 **** -0.24
21852 H 84.8805488953023 74.66757269583997 30.09704172969566 H 0.0 **** 0.06
21853 H 85.24975688007194 74.60005758916228 31.837414257150954 H 0.0 **** 0.06
21854 H 84.91865985364029 76.16524773752366 31.057504765795784 H 0.0 **** 0.06
21855 H 86.43145031799477 75.29727658091016 30.70323322592708 H 0.0 **** 0.06
21856 C 9.63173410491521 37.82749751513208 93.56748537235497 C 0.0 **** -0.24
21857 H 9.594937442995388 37.889792559888065 92.47977857508307 H 0.0 **** 0.06
21858 H 8.71365266567335 37.36771983242636 93.93557200395027 H 0.0 **** 0.06
21859 H 9.729635634145126 38.82950930420151 93.986322385875 H 0.0 **** 0.06
21860 H 10.487372800723648 37.223381110914914 93.8680689549036 H 0.0 **** 0.06
21861 C 0.6946961705229313 45.30184278695339 66.3459343342066 C 0.0 **** -0.24
21862 H 1.3344766052863548 45.98768436772798 65.79194518476093 H 0.0 **** 0.06
21863 H 1.295870294426166 44.47910977295777 66.73427547651028 H 0.0 **** 0.06
21864 H -0.07485041692268624 44.907657622871454 65.68192389933168 H 0.0 **** 0.06
21865 H 0.22395753591031564 45.831537473472 67.1739671801865 H 0.0 **** 0.06
21866 C 11.73241403199836 8.906102720029367 110.03011641324659 C 0.0 **** -0.24
21867 H 11.17593891560621 9.805203209253676 110.29591053765735 H 0.0 **** 0.06
21868 H 12.754629423089966 8.989990097172097 110.39761645326718 H 0.0 **** 0.06
21869 H 11.744213084629067 8.794217584548988 108.94585987579482 H 0.0 **** 0.06
21870 H 11.254320508041502 8.03613256709258 110.47952626109898 H 0.0 **** 0.06
21871 C 109.13550050201363 65.18456882214895 19.250265564367368 C 0.0 **** -0.24
21872 H 109.0771412699996 66.27220617414781 19.226268403123754 H 0.0 **** 0.06
21873 H 110.18165702337859 64.87767148497653 19.273767549118162 H 0.0 **** 0.06
21874 H 108.6571313484279 64.77594273717983 18.360249048070287 H 0.0 **** 0.06
21875 H 108.62720362610074 64.81241413531404 20.139929500959667 H 0.0 **** 0.06
21876 C 40.00363024486472 61.4330474049422 89.3262018267313 C 0.0 **** -0.24
21877 H 40.11850372089457 60.98069649747545 88.34062355634195 H 0.0 **** 0.06
21878 H 40.97158897930534 61.45867672126553 89.82857007063198 H 0.0 **** 0.06
21879 H 39.30291032922085 60.84258181957205 89.9172329325128 H 0.0 **** 0.06
21880 H 39.622947396391716 62.44853309797806 89.21813197347716 H 0.0 **** 0.06
21881 C 90.0249400958377 93.15596265437574 102.47843889032363 C 0.0 **** -0.24
21882 H 90.66226791155574 92.44830626258715 101.94859419797935 H 0.0 **** 0.06
21883 H 88.99988308046804 93.06189189119732 102.11828114851517 H 0.0 **** 0.06
21884 H 90.38120322854664 94.17110004133258 102.29847643953362 H 0.0 **** 0.06
21885 H 90.05644513176338 92.94385487234598 103.54658653645258 H 0.0 **** 0.06
21886 C 27.961699304772708 102.15932102628001 11.857308386572697 C 0.0 **** -0.24
21887 H 27.82498414816851 101.1050018703828 12.094451245448369 H 0.0 **** 0.06
21888 H 27.544949333612408 102.36690838601861 10.871431765118047 H 0.0 **** 0.06
21889 H 29.025212971972906 102.39790475748332 11.859800172068304 H 0.0 **** 0.06
21890 H 27.451656696301853 102.76845979337148 12.603686467950439 H 0.0 **** 0.06
21891 C 70.2415121384187 11.976553414455111 80.85294023583027 C 0.0 **** -0.24
21892 H 69.57398664024208 11.325329103584295 81.41542155618296 H 0.0 **** 0.06
21893 H 69.85177717650134 12.112294859660008 79.8436946308469 H 0.0 **** 0.06
21894 H 71.23296026918057 11.525530603728257 80.80185398369416 H 0.0 **** 0.06
21895 H 70.30829652368232 12.944321598953625 81.35011155880031 H 0.0 **** 0.06
21896 C 94.13939473659491 103.39060421014433 26.313126647220912 C 0.0 **** -0.24
21897 H 95.03928512415422 102.93226426434383 26.724168680364983 H 0.0 **** 0.06
21898 H 94.41010825881756 104.29394000462584 25.76642712548869 H 0.0 **** 0.06
21899 H 93.45958652612416 103.6466211817301 27.125578382333828 H 0.0 **** 0.06
21900 H 93.65051995219886 102.68808641832018 25.638343780639843 H 0.0 **** 0.06
21901 C 95.42698965587988 17.084324271768537 57.093141866671374 C 0.0 **** -0.24
21902 H 96.44734096320656 17.463459900493433 57.160143203665996 H 0.0 **** 0.06
21903 H 95.1157519666798 17.066288749396506 56.04899651332576 H 0.0 **** 0.06
21904 H 94.76129486690621 17.734441669835746 57.66038477893187 H 0.0 **** 0.06
21905 H 95.38700214727885 16.075777773518894 57.50334747130472 H 0.0 **** 0.06
21906 C 105.99207087987926 19.877652064378083 40.93808371575932 C 0.0 **** -0.24
21907 H 106.43226028459188 18.992602653023738 41.39749808334744 H 0.0 **** 0.06
21908 H 105.00527125831337 20.055700284537124 41.36597049172792 H 0.0 **** 0.06
21909 H 105.89917692683233 19.72097639703364 39.86312454850457 H 0.0 **** 0.06
21910 H 106.63123929283677 20.74010261318017 41.12512243964494 H 0.0 **** 0.06
21911 C 96.20679352121059 64.87230886139945 61.623601766612865 C 0.0 **** -0.24
21912 H 96.57618792795535 63.85555686589083 61.49251076978004 H 0.0 **** 0.06
21913 H 95.12113969739033 64.8537013133004 61.72496410772203 H 0.0 **** 0.06
21914 H 96.48138613006222 65.47343422010434 60.75681059630472 H 0.0 **** 0.06
21915 H 96.64880362313161 65.30547060107214 62.52097722762596 H 0.0 **** 0.06
21916 C 82.32987707729933 96.80913536759442 49.454606912202195 C 0.0 **** -0.24
21917 H 83.18128163857654 96.24376167453863 49.07613158164196 H 0.0 **** 0.06
21918 H 81.74886358891013 96.18100616274333 50.13033673383441 H 0.0 **** 0.06
21919 H 81.70299021604552 97.12224813599033 48.61968536489704 H 0.0 **** 0.06
21920 H 82.68579688883796 97.68800544176952 49.99110868581732 H 0.0 **** 0.06
21921 C 51.315071073191774 65.06284553592428 47.5100301830545 C 0.0 **** -0.24
21922 H 52.16743522248561 65.19743091039 48.17579129213257 H 0.0 **** 0.06
21923 H 51.59997693281082 64.4110012537108 46.68406321985396 H 0.0 **** 0.06
21924 H 51.002893845061806 66.03088748576953 47.118713338851 H 0.0 **** 0.06
21925 H 50.49092832299459 64.61088815634567 48.062400539447864 H 0.0 **** 0.06
21926 C 93.376303293999 69.01452533402846 64.98611010619561 C 0.0 **** -0.24
21927 H 93.04064384664538 68.30088018430041 64.23298520267082 H 0.0 **** 0.06
21928 H 94.31438087036403 68.66945506898065 65.42108448807545 H 0.0 **** 0.06
21929 H 92.62131605911183 69.09809437488212 65.76756720696454 H 0.0 **** 0.06
21930 H 93.52721502617464 69.98885518480256 64.52043987420691 H 0.0 **** 0.06
21931 C 31.260549493939536 82.30878337834324 101.26591860828617 C 0.0 **** -0.24
21932 H 30.355580777074024 81.90402404097188 100.81119967778388 H 0.0 **** 0.06
21933 H 30.987362227590154 83.00811185274694 102.05658742118746 H 0.0 **** 0.06
21934 H 31.846778577291715 82.8278662021975 100.50742653077651 H 0.0 **** 0.06
21935 H 31.850542657275597 81.4953176849462 101.68735345573006 H 0.0 **** 0.06
21936 C 88.66882485674734 38.463111027090775 106.27955519731539 C 0.0 **** -0.24
21937 H 89.617003061361 38.34279744543025 105.75561201080649 H 0.0 **** 0.06
21938 H 88.00781666329107 39.10054615872406 105.69135250265728 H 0.0 **** 0.06
21939 H 88.84599094206968 38.92247481236893 107.2513652395431 H 0.0 **** 0.06
21940 H 88.2039665506783 37.48700464396268 106.41775002158386 H 0.0 **** 0.06
21941 C 74.72147059469683 96.81519936820277 80.19812893635327 C 0.0 **** -0.24
21942 H 74.5207364518883 96.44425565688053 79.19277709494122 H 0.0 **** 0.06
21943 H 73.77816186473115 97.02948792961605 80.70165534468856 H 0.0 **** 0.06
21944 H 75.31595907794929 97.72674447656551 80.13597835253213 H 0.0 **** 0.06
21945 H 75.27123577502334 96.06110647082151 80.76153899286317 H 0.0 **** 0.06
21946 C 2.9678137888293 50.16271135391303 29.988987477226374 C 0.0 **** -0.24
21947 H 3.935335811095884 49.67471698730343 29.87699060265021 H 0.0 **** 0.06
21948 H 3.0797081604695276 51.23518866884675 29.8258162383693 H 0.0 **** 0.06
21949 H 2.585764313252911 49.98618849432972 30.994201177692958 H 0.0 **** 0.06
21950 H 2.268808544544531 49.75568485708265 29.25773999768532 H 0.0 **** 0.06
21951 C 101.87492977779772 35.304667167315756 62.98175289727028 C 0.0 **** -0.24
21952 H 102.62592920845222 35.57326144106872 62.23859765161323 H 0.0 **** 0.06
21953 H 100.9618859917477 35.86899260002642 62.795730014640014 H 0.0 **** 0.06
21954 H 102.25099688159484 35.53701100390953 63.978113077574164 H 0.0 **** 0.06
21955 H 101.66316307984003 34.23718970053244 62.914667182699944 H 0.0 **** 0.06
21956 C 23.91431696623937 109.98427011785444 23.183879118332527 C 0.0 **** -0.24
21957 H 23.756891517437055 110.2178959895311 22.130351723659544 H 0.0 **** 0.06
21958 H 23.005647197389237 110.20670429493244 23.744035401499644 H 0.0 **** 0.06
21959 H 24.736499012719293 110.58688410884531 23.57037855237732 H 0.0 **** 0.06
21960 H 24.15747015150032 108.92714235257142 23.28850761525652 H 0.0 **** 0.06
21961 C 96.18809388232194 84.28795519211764 87.39567706266371 C 0.0 **** -0.24
21962 H 95.81891350879846 84.83649386874833 86.52860385399526 H 0.0 **** 0.06
21963 H 96.20300940671024 83.22159710428792 87.1703047283894 H 0.0 **** 0.06
21964 H 95.53319918499267 84.47179657025123 88.247148726359 H 0.0 **** 0.06
21965 H 97.19768594187929 84.62245371346378 87.63429672738408 H 0.0 **** 0.06
21966 C 4.661113771262848 79.22576579062681 32.34397770116237 C 0.0 **** -0.24
21967 H 3.7813470101455664 79.27208559557577 32.985714910935144 H 0.0 **** 0.06
21968 H 5.374047284565805 79.99140718740044 32.65152418117225 H 0.0 **** 0.06
21969 H 4.3656135887172525 79.39860058172181 31.308708387052235 H 0.0 **** 0.06
21970 H 5.122690636012962 78.24261584812419 32.43127419475337 H 0.0 **** 0.06
21971 C 80.44842968672413 67.80190084797243 11.731317058513639 C 0.0 **** -0.24
21972 H 80.85523725215998 67.0766981678664 12.435797994561995 H 0.0 **** 0.06
21973 H 80.55939570969785 68.8069517117599 12.139518091472269 H 0.0 **** 0.06
21974 H 79.39192711830947 67.59138100054645 11.56429171850698 H 0.0 **** 0.06
21975 H 80.98629174661872 67.73081193623119 10.786046466546338 H 0.0 **** 0.06
21976 C 48.27382970706862 10.174777809973861 38.041040240374315 C 0.0 **** -0.24
21977 H 48.62455555493613 9.229555877822449 38.4540118555077 H 0.0 **** 0.06
21978 H 48.131868351740934 10.06974621600051 36.96511036105983 H 0.0 **** 0.06
21979 H 49.01098108185446 10.952564305096573 38.23717459634685 H 0.0 **** 0.06
21980 H 47.32719230973468 10.44603787384861 38.50801489789603 H 0.0 **** 0.06
21981 C 32.72201713350668 43.12557781680988 70.75472151377272 C 0.0 **** -0.24
21982 H 32.108445088642185 43.4331866265419 69.90749607916365 H 0.0 **** 0.06
21983 H 32.09081696639369 43.0034935618076 71.63493882524313 H 0.0 **** 0.06
21984 H 33.47674804591449 43.88787360645142 70.95076019142414 H 0.0 **** 0.06
21985 H 33.212387999348095 42.180738133730074 70.52427406216066 H 0.0 **** 0.06
21986 C 22.70277545616794 42.07196588530496 81.64243165046503 C 0.0 **** -0.24
21987 H 23.617090252515112 42.289077004482294 81.09028951277034 H 0.0 **** 0.06
21988 H 21.87947734774005 42.64979302707309 81.2229000891005 H 0.0 **** 0.06
21989 H 22.839874589666806 42.34071441891638 82.689725196778 H 0.0 **** 0.06
21990 H 22.477097255072664 41.00839201295213 81.56659836140915 H 0.0 **** 0.06
21991 C 33.91023950767335 44.245643377032934 38.258021259526174 C 0.0 **** -0.24
21992 H 33.34148862118638 45.16669365313834 38.37999452998997 H 0.0 **** 0.06
21993 H 33.348335039271554 43.4135710543527 38.6842616065411 H 0.0 **** 0.06
21994 H 34.86698595184194 44.33884047597621 38.771578713397275 H 0.0 **** 0.06
21995 H 34.0830819294333 44.06273385936163 37.197774446397716 H 0.0 **** 0.06
21996 C 61.27686380473415 73.33214152388564 22.39504173620395 C 0.0 **** -0.24
21997 H 62.03454726211791 73.42086744906004 23.174888081109458 H 0.0 **** 0.06
21998 H 61.708180641727495 72.83617662830744 21.52545945453147 H 0.0 **** 0.06
21999 H 60.92868720846731 74.3252108597267 22.112816592691416 H 0.0 **** 0.06
22000 H 60.43755551224238 72.74561138636588 22.76949566973667 H 0.0 **** 0.06
22001 C 28.45854127283161 94.8941626898866 77.35874776760278 C 0.0 **** -0.24
22002 H 27.735616704663528 95.53841559688483 76.85749430448297 H 0.0 **** 0.06
22003 H 28.597194001218128 95.23367399747215 78.38453534592844 H 0.0 **** 0.06
22004 H 29.41087677532971 94.93782856946186 76.82917135794105 H 0.0 **** 0.06
22005 H 28.090368543933124 93.86819487736484 77.36065152094648 H 0.0 **** 0.06
22006 C 104.89874510146065 42.207691279949756 8.514277940417571 C 0.0 **** -0.24
22007 H 104.67196749278718 43.15576051620259 8.027233445791424 H 0.0 **** 0.06
22008 H 105.00212614565135 42.366750272468984 9.587893027515099 H 0.0 **** 0.06
22009 H 105.82984124427459 41.8074902382185 8.113973315515256 H 0.0 **** 0.06
22010 H 104.08980839711073 41.501106126251294 8.327418143780639 H 0.0 **** 0.06
22011 C 58.67597228787706 40.04772944557766 14.983633716248562 C 0.0 **** -0.24
22012 H 58.915790126449295 40.93415036414052 14.395563022832903 H 0.0 **** 0.06
22013 H 58.897655129790806 39.153585027892404 14.399877538224302 H 0.0 **** 0.06
22014 H 57.616713822092365 40.059658196340706 15.242811264964871 H 0.0 **** 0.06
22015 H 59.27248621874266 40.04415466608151 15.896047599854455 H 0.0 **** 0.06
22016 C 19.97991854550321 60.0609388941823 85.92109026346259 C 0.0 **** -0.24
22017 H 20.781035378198226 60.781449951719964 86.08349509023917 H 0.0 **** 0.06
22018 H 19.179579153307458 60.23931929880797 86.63987678691281 H 0.0 **** 0.06
22019 H 20.36667137188465 59.05041051842727 86.052297647914 H 0.0 **** 0.06
22020 H 19.5910509024701 60.17240125565138 84.90911703688032 H 0.0 **** 0.06
22021 C 106.37958352211062 51.705196481102405 44.727655875825526 C 0.0 **** -0.24
22022 H 106.20243756410873 52.60651524679844 45.314350444681 H 0.0 **** 0.06
22023 H 107.44727242831362 51.48525107149362 44.71255053454128 H 0.0 **** 0.06
22024 H 106.02540752781552 51.860479338877155 43.70830934152789 H 0.0 **** 0.06
22025 H 105.8418652025316 50.86892602441071 45.175571621116624 H 0.0 **** 0.06
22026 C 66.6257889900503 26.000333626056232 21.796593916198276 C 0.0 **** -0.24
22027 H 65.87291700432662 26.52501451920773 22.38530733950597 H 0.0 **** 0.06
22028 H 66.86843883521715 26.587217475153267 20.911113201469675 H 0.0 **** 0.06
22029 H 66.23646506187227 25.02815577173459 21.493467119717252 H 0.0 **** 0.06
22030 H 67.52407699047997 25.860722838175292 22.3976573132054 H 0.0 **** 0.06
22031 C 8.561859396452178 84.6152246101708 71.78857121259034 C 0.0 **** -0.24
22032 H 7.554791415700834 84.79920300809215 71.41484438310232 H 0.0 **** 0.06
22033 H 8.632007287033588 84.95250365162076 72.82281386552808 H 0.0 **** 0.06
22034 H 9.281834730745999 85.16054581589395 71.1779116841762 H 0.0 **** 0.06
22035 H 8.778534431087024 83.54769086737767 71.73883775531675 H 0.0 **** 0.06
22036 C 51.47556584294358 82.93559723852582 72.78724303819045 C 0.0 **** -0.24
22037 H 51.2625220605849 84.00417148828137 72.77149120079662 H 0.0 **** 0.06
22038 H 52.54326025384972 82.7808129924179 72.94174934465691 H 0.0 **** 0.06
22039 H 51.17724305928306 82.49191536376765 71.8374285103611 H 0.0 **** 0.06
22040 H 50.919468848452766 82.46681077181029 73.59875033038425 H 0.0 **** 0.06
22041 C 74.95669402580484 72.95026952329063 64.45048846039265 C 0.0 **** -0.24
22042 H 75.53394889756919 72.38287751694425 63.720896914611274 H 0.0 **** 0.06
22043 H 74.9155792234564 73.99645052760322 64.14636407811156 H 0.0 **** 0.06
22044 H 75.43271246928435 72.87432442393593 65.42842125249342 H 0.0 **** 0.06
22045 H 73.94560370082559 72.54740376032646 64.50534499121659 H 0.0 **** 0.06
22046 C 86.56416947895698 95.21601410876406 98.58280869867598 C 0.0 **** -0.24
22047 H 86.70085770344969 94.51018910450637 99.40190643943072 H 0.0 **** 0.06
22048 H 87.4267475100461 95.17031661814133 97.9168960278733 H 0.0 **** 0.06
22049 H 86.46787844154325 96.22517568325895 98.98457198003351 H 0.0 **** 0.06
22050 H 85.66283710842325 94.95816834773859 98.02735193289267 H 0.0 **** 0.06
22051 C 67.47117601132261 57.91012301582742 55.7167222677582 C 0.0 **** -0.24
22052 H 66.83768309750225 58.583031163660706 55.13929603332838 H 0.0 **** 0.06
22053 H 67.07377690483037 57.81437940962138 56.72752634361706 H 0.0 **** 0.06
22054 H 68.4837276240086 58.312349925891965 55.76007567235695 H 0.0 **** 0.06
22055 H 67.49027780885704 56.93014496682446 55.23895357796897 H 0.0 **** 0.06
22056 C 61.659495384834045 9.364993583340919 79.302126679253 C 0.0 **** -0.24
22057 H 61.519282695179726 10.276551962085975 79.88391487483203 H 0.0 **** 0.06
22058 H 61.663839514711725 8.504117253881844 79.97136718259227 H 0.0 **** 0.06
22059 H 62.60907749078069 9.416796128414035 78.76988234568444 H 0.0 **** 0.06
22060 H 60.845822493119684 9.262895921308242 78.58470199443411 H 0.0 **** 0.06
22061 C 55.70916603536136 67.59013008444703 42.46686333320892 C 0.0 **** -0.24
22062 H 54.62815833890403 67.65613466757156 42.3459565122719 H 0.0 **** 0.06
22063 H 55.97353317575454 66.60179496337622 42.84263510593445 H 0.0 **** 0.06
22064 H 56.04160776336994 68.34894383530388 43.17597120470994 H 0.0 **** 0.06
22065 H 56.19306040195585 67.75469248409809 41.50484352015435 H 0.0 **** 0.06
22066 C 42.112938369191625 62.78332229531469 40.2213975571588 C 0.0 **** -0.24
22067 H 42.88723641070278 62.78211471079034 40.98851346207081 H 0.0 **** 0.06
22068 H 42.14004894077463 61.83957273567583 39.6766347459267 H 0.0 **** 0.06
22069 H 42.28692085954154 63.60738860450138 39.530525303874064 H 0.0 **** 0.06
22070 H 41.13662650106562 62.90459535205322 40.69191830371197 H 0.0 **** 0.06
22071 C 93.79100426636339 46.87345347941917 69.00994918218936 C 0.0 **** -0.24
22072 H 93.42252816799066 45.912786825456365 68.65061833165498 H 0.0 **** 0.06
22073 H 92.99723804887385 47.38871735327303 69.54995567947392 H 0.0 **** 0.06
22074 H 94.10815964112385 47.48063307404581 68.16190486933385 H 0.0 **** 0.06
22075 H 94.63799507438924 46.710818711680275 69.67651818687116 H 0.0 **** 0.06
22076 C 67.71293146480377 48.455150849063244 99.75916457509493 C 0.0 **** -0.24
22077 H 66.82661096619728 48.60366357276382 100.37686088400426 H 0.0 **** 0.06
22078 H 67.8314757432729 47.39272348825321 99.54543552221337 H 0.0 **** 0.06
22079 H 68.59128278574275 48.82053224327956 100.29145222028761 H 0.0 **** 0.06
22080 H 67.5999552001112 49.00416407628029 98.82464301732445 H 0.0 **** 0.06
22081 C 44.59155927987425 38.830832998391486 44.55869887614699 C 0.0 **** -0.24
22082 H 44.75359532870698 39.7789083604373 44.046233131437646 H 0.0 **** 0.06
22083 H 44.584432453667446 38.99786804544141 45.63656775321792 H 0.0 **** 0.06
22084 H 45.394048863638986 38.138767441938626 44.30371562537101 H 0.0 **** 0.06
22085 H 43.635597974338225 38.40900414283368 44.248953637794045 H 0.0 **** 0.06
22086 C 60.96082159219293 96.99807749038231 1.6089975814348918 C 0.0 **** -0.24
22087 H 60.84849802571135 97.69045181380042 2.4427408845017453 H 0.0 **** 0.06
22088 H 60.01263048564391 96.91343254941738 1.0764258212332152 H 0.0 **** 0.06
22089 H 61.255259063769714 96.01904168788306 1.9867596689947504 H 0.0 **** 0.06
22090 H 61.7272228334696 97.37010039752879 0.9285206444102414 H 0.0 **** 0.06
22091 C 90.00822831997291 95.65452692667482 12.539155135331441 C 0.0 **** -0.24
22092 H 89.1327835996679 95.427543895913 11.93074410935722 H 0.0 **** 0.06
22093 H 90.73931384625362 94.85209891667003 12.436281344184607 H 0.0 **** 0.06
22094 H 89.71134042913583 95.74507902102035 13.584124819286188 H 0.0 **** 0.06
22095 H 90.44920850816509 96.59388466134882 12.204174090654334 H 0.0 **** 0.06
22096 C 0.6288863142036405 33.458703602013635 84.26684623117211 C 0.0 **** -0.24
22097 H 1.4976816810478226 33.252494103063036 84.891080906019 H 0.0 **** 0.06
22098 H 0.6690485317304535 34.48997505545601 83.9159161432708 H 0.0 **** 0.06
22099 H -0.2802592228571825 33.30869526761656 84.84947874336308 H 0.0 **** 0.06
22100 H 0.6280637795377686 32.782945299130716 83.41160370962433 H 0.0 **** 0.06
22101 C 25.865561869133245 59.75121244137726 88.24885520632591 C 0.0 **** -0.24
22102 H 25.060078845284778 59.214084720628904 87.74768092436761 H 0.0 **** 0.06
22103 H 25.449166299524762 60.58750134142852 88.81119352229092 H 0.0 **** 0.06
22104 H 26.56884583026364 60.12691834344899 87.5060029657568 H 0.0 **** 0.06
22105 H 26.382764339794434 59.07611316123803 88.93063324710306 H 0.0 **** 0.06
22106 C 85.25253145675896 7.074747857500796 57.582782553106455 C 0.0 **** -0.24
22107 H 86.30520464770211 7.217449817000954 57.33885422400732 H 0.0 **** 0.06
22108 H 84.99721955282041 7.67646377955019 58.45575596295049 H 0.0 **** 0.06
22109 H 85.06961445173135 6.022318861068015 57.79970030097081 H 0.0 **** 0.06
22110 H 84.63899358544666 7.383479283544574 56.73600752249368 H 0.0 **** 0.06
22111 C 40.019440098944514 13.001364126038215 61.32460365893678 C 0.0 **** -0.24
22112 H 39.13350451450263 13.406878552519405 61.8134614420768 H 0.0 **** 0.06
22113 H 39.71435147913644 12.32603268773595 60.525148142195235 H 0.0 **** 0.06
22114 H 40.618757305199246 12.455669318370855 62.053624791490165 H 0.0 **** 0.06
22115 H 40.6088630819826 13.816521218519966 60.90699127545389 H 0.0 **** 0.06
22116 C 92.15866266221101 65.65812798531266 73.28177016881074 C 0.0 **** -0.24
22117 H 91.65463912446673 64.94449113888876 72.63056173768211 H 0.0 **** 0.06
22118 H 91.56358304345213 66.56977241915774 73.35027196530348 H 0.0 **** 0.06
22119 H 93.1404623861465 65.89337454071483 72.87193843705336 H 0.0 **** 0.06
22120 H 92.27453839605153 65.22425977459872 74.27556742284008 H 0.0 **** 0.06
22121 C 22.63462251523555 55.31460625562136 74.5764314650688 C 0.0 **** -0.24
22122 H 21.582771906114516 55.41340692321532 74.84672484572445 H 0.0 **** 0.06
22123 H 23.24870578764515 55.40145495274339 75.47278450349492 H 0.0 **** 0.06
22124 H 22.90422307175598 56.102709678448576 73.87387810058759 H 0.0 **** 0.06
22125 H 22.801388699645457 54.341675554959124 74.11417220606306 H 0.0 **** 0.06
22126 C 57.16420699354971 37.75647979131969 35.415042594136594 C 0.0 **** -0.24
22127 H 57.28955308984818 38.65795523117754 34.815439301315564 H 0.0 **** 0.06
22128 H 57.497208959888205 36.89054714426811 34.841610692398376 H 0.0 **** 0.06
22129 H 56.11326195535614 37.63716573516899 35.67606242412785 H 0.0 **** 0.06
22130 H 57.75764819926969 37.83971565453919 36.32482168416891 H 0.0 **** 0.06
22131 C 76.70003276048135 57.2816218193294 102.28427764021485 C 0.0 **** -0.24
22132 H 75.91769886848556 57.920808382625474 102.6929485666914 H 0.0 **** 0.06
22133 H 77.67157112351572 57.750467636586876 102.44309382945997 H 0.0 **** 0.06
22134 H 76.53393181097226 57.144160310382034 101.21525444125865 H 0.0 **** 0.06
22135 H 76.67638893419735 56.313740633126194 102.783269245686 H 0.0 **** 0.06
22136 C 82.89601142079187 78.63028524633219 53.14165618711121 C 0.0 **** -0.24
22137 H 82.35250781051755 79.42984651027899 52.637846338531745 H 0.0 **** 0.06
22138 H 83.7871115177625 78.37885043456097 52.56553646065987 H 0.0 **** 0.06
22139 H 82.2565175168642 77.75223642275176 53.225013730872746 H 0.0 **** 0.06
22140 H 83.18915175615243 78.96277583789123 54.13730093618986 H 0.0 **** 0.06
22141 C 33.453782738837845 11.602853718716098 66.52725651524827 C 0.0 **** -0.24
22142 H 32.648939044933655 11.662448255120971 67.26006267162347 H 0.0 **** 0.06
22143 H 33.07623019899714 11.15271070303773 65.60921344947945 H 0.0 **** 0.06
22144 H 34.26447446424345 10.991953497506426 66.92563401117854 H 0.0 **** 0.06
22145 H 33.82613596222379 12.605046918337635 66.31427385305722 H 0.0 **** 0.06
22146 C 15.281710060159881 93.77738109070907 15.028319361512672 C 0.0 **** -0.24
22147 H 15.897187615412133 94.67183533684693 14.92857595126037 H 0.0 **** 0.06
22148 H 14.35107139265303 94.03199204933787 15.535345649244846 H 0.0 **** 0.06
22149 H 15.820040397843218 93.02890612119819 15.60867385243759 H 0.0 **** 0.06
22150 H 15.06005431724395 93.37769937553492 14.038256211905264 H 0.0 **** 0.06
22151 C 43.994042817443614 57.730814416763394 67.61879989125273 C 0.0 **** -0.24
22152 H 45.06274518387795 57.87605117022471 67.46235741427586 H 0.0 **** 0.06
22153 H 43.835505202480874 56.851479558715226 68.2435380699832 H 0.0 **** 0.06
22154 H 43.5033957830062 57.5860066282755 66.65597178825976 H 0.0 **** 0.06
22155 H 43.57591542198506 58.60741906639453 68.11166742393783 H 0.0 **** 0.06
22156 C 86.61098902990868 38.512068592582864 45.22405884459317 C 0.0 **** -0.24
22157 H 86.75624067759969 37.43114676134576 45.25068196940231 H 0.0 **** 0.06
22158 H 87.54574907350347 39.009918546064796 45.482764931665486 H 0.0 **** 0.06
22159 H 85.83975468181008 38.79159020069869 45.94175096408475 H 0.0 **** 0.06
22160 H 86.3026844299584 38.81177268177646 44.22348382996995 H 0.0 **** 0.06
22161 C 31.721048012562648 43.1708328991931 12.999824967868733 C 0.0 **** -0.24
22162 H 32.70694679483705 42.730479706730534 13.152184542481123 H 0.0 **** 0.06
22163 H 31.8296543791013 44.22528193008111 12.747088738581354 H 0.0 **** 0.06
22164 H 31.135633637701602 43.074244853602295 13.914474363590742 H 0.0 **** 0.06
22165 H 31.213273153425376 42.65184375741785 12.186992461240521 H 0.0 **** 0.06
22166 C 87.32815346129796 59.60933281908504 99.09956492213061 C 0.0 **** -0.24
22167 H 88.41795425009366 59.5960627839912 99.08790848962616 H 0.0 **** 0.06
22168 H 86.97152694988368 60.52472715506063 98.62804033026089 H 0.0 **** 0.06
22169 H 86.97584900239366 59.569680700597814 100.13087431761267 H 0.0 **** 0.06
22170 H 86.94910727788009 58.745860451498984 98.55225766985694 H 0.0 **** 0.06
22171 C 39.52542626264369 75.6950909247773 0.9776068816926653 C 0.0 **** -0.24
22172 H 39.13110621256024 74.83641518873837 0.4345439097620414 H 0.0 **** 0.06
22173 H 39.10558919253464 75.71200187840908 1.9839764200059875 H 0.0 **** 0.06
22174 H 39.25396222129484 76.61147429673312 0.4540054140995551 H 0.0 **** 0.06
22175 H 40.61147609292118 75.6185096139726 1.0388837298340547 H 0.0 **** 0.06
22176 C 10.545093716520114 71.0174432809956 49.77722509278201 C 0.0 **** -0.24
22177 H 11.218106711570698 71.86008926491633 49.620924254066395 H 0.0 **** 0.06
22178 H 10.886887379453583 70.43458095425797 50.63284320767942 H 0.0 **** 0.06
22179 H 10.537325347382051 70.38899870472076 48.887737767039795 H 0.0 **** 0.06
22180 H 9.538126986894554 71.38856682264826 49.96878466442604 H 0.0 **** 0.06
22181 C 102.73347850847338 34.8592556923447 76.53884073812605 C 0.0 **** -0.24
22182 H 102.70894989654892 34.11864873440905 77.33886602837475 H 0.0 **** 0.06
22183 H 101.72619105878182 35.239827805560054 76.36583883932167 H 0.0 **** 0.06
22184 H 103.10858604465999 34.39573959967663 75.62670923912395 H 0.0 **** 0.06
22185 H 103.38879324508036 35.68149127830779 76.8251009979017 H 0.0 **** 0.06
22186 C 12.912527396977339 93.83604462286168 37.20852157695168 C 0.0 **** -0.24
22187 H 12.326808764924976 93.09884453408574 37.75813732487154 H 0.0 **** 0.06
22188 H 13.038172379003186 94.72957470698823 37.8201473345801 H 0.0 **** 0.06
22189 H 12.394307458992785 94.09698531571524 36.285717812430875 H 0.0 **** 0.06
22190 H 13.890786040795433 93.41739111937498 36.96978938498998 H 0.0 **** 0.06
22191 C 63.53699156744278 102.53933713954746 88.07384965506992 C 0.0 **** -0.24
22192 H 63.483858306565494 103.62761550996653 88.03556383771968 H 0.0 **** 0.06
22193 H 63.2704083509215 102.12919175338995 87.09881325721125 H 0.0 **** 0.06
22194 H 62.84403863619529 102.16753898578442 88.82754655567231 H 0.0 **** 0.06
22195 H 64.55174862185673 102.23414096274033 88.33139033405038 H 0.0 **** 0.06
22196 C 52.70054705598557 1.7926865263683425 89.05716175395708 C 0.0 **** -0.24
22197 H 52.493607084903914 2.815300145759892 88.74207930065847 H 0.0 **** 0.06
22198 H 52.81285183511569 1.7629368956236675 90.14079283061733 H 0.0 **** 0.06
22199 H 53.62013603414343 1.447454564556466 88.58612070956372 H 0.0 **** 0.06
22200 H 51.87420173230379 1.1470095848920465 88.75916268098052 H 0.0 **** 0.06
22201 C 36.031679598072685 84.25481164012348 89.9010158172876 C 0.0 **** -0.24
22202 H 35.81530295478112 84.72992732999057 90.85737083207857 H 0.0 **** 0.06
22203 H 37.10762418749013 84.25964646032948 89.7285352010581 H 0.0 **** 0.06
22204 H 35.533029355336566 84.80487611838288 89.10179755486479 H 0.0 **** 0.06
22205 H 35.669146315229334 83.22705995859793 89.91584223786879 H 0.0 **** 0.06
22206 C 80.02569983668036 48.2414305136069 45.11723802561349 C 0.0 **** -0.24
22207 H 79.19234323517173 47.86347736243954 45.7109155530691 H 0.0 **** 0.06
22208 H 80.94119538944415 47.72394062804824 45.40615654062913 H 0.0 **** 0.06
22209 H 80.14124895889802 49.31036081585944 45.29370641059596 H 0.0 **** 0.06
22210 H 79.82679187782503 48.06625041629377 44.06032920774723 H 0.0 **** 0.06
22211 C 57.96459287485107 24.504742361228317 19.800896195978794 C 0.0 **** -0.24
22212 H 58.65282052891645 25.264720700854156 20.171287025926972 H 0.0 **** 0.06
22213 H 57.4630998301238 24.02748427117296 20.643498849089326 H 0.0 **** 0.06
22214 H 58.51987999562122 23.756213718296827 19.235668085418638 H 0.0 **** 0.06
22215 H 57.22221503619354 24.971900969517247 19.153354892451716 H 0.0 **** 0.06
22216 C 63.14417344983468 68.41138828739878 74.20836908320871 C 0.0 **** -0.24
22217 H 63.86158584461286 67.83230885656798 74.78839763176711 H 0.0 **** 0.06
22218 H 62.99777632131415 69.38393530610477 74.67863594941684 H 0.0 **** 0.06
22219 H 62.19338457820659 67.87987967151787 74.16990041421502 H 0.0 **** 0.06
22220 H 63.52379411480116 68.55098219784952 73.19579046232752 H 0.0 **** 0.06
22221 C 31.45859364062676 50.135154091570506 7.450326207553161 C 0.0 **** -0.24
22222 H 32.381573921632 50.44866711911015 7.936990013515356 H 0.0 **** 0.06
22223 H 30.928935266085375 51.01197826994748 7.075536686736285 H 0.0 **** 0.06
22224 H 30.82876001830462 49.609218393456686 8.16781277926168 H 0.0 **** 0.06
22225 H 31.693970508350276 49.470276422957284 6.618418628724754 H 0.0 **** 0.06
22226 C 75.90175589936814 10.011008327407598 36.71801778059582 C 0.0 **** -0.24
22227 H 75.50748632909811 9.17751474574956 37.298660223944196 H 0.0 **** 0.06
22228 H 75.22645350848265 10.227130601497084 35.88924178482245 H 0.0 **** 0.06
22229 H 76.88475699726843 9.749542558952392 36.32660723790487 H 0.0 **** 0.06
22230 H 75.98694659467472 10.890770933998898 37.35606562005492 H 0.0 **** 0.06
22231 C 95.9602387468146 101.97885605287968 110.04819635280896 C 0.0 **** -0.24
22232 H 95.76503806466386 101.26028896457828 110.84479651028782 H 0.0 **** 0.06
22233 H 97.01976568526904 102.23603413364849 110.04237682605755 H 0.0 **** 0.06
22234 H 95.36835730496063 102.8783624057004 110.218129935061 H 0.0 **** 0.06
22235 H 95.6861331807576 101.54013589481721 109.08841954154039 H 0.0 **** 0.06
22236 C 35.54881696284764 92.63438484777436 35.69262775632376 C 0.0 **** -0.24
22237 H 36.300998021878115 93.16506011273967 35.108852839461036 H 0.0 **** 0.06
22238 H 34.96802197893396 93.35237610357002 36.27364633726481 H 0.0 **** 0.06
22239 H 36.039787602008175 91.93331731844694 36.36665729596301 H 0.0 **** 0.06
22240 H 34.88594233397981 92.09033285964512 35.02028159598035 H 0.0 **** 0.06
22241 C 27.794191275836795 87.0392099864389 59.02151554106047 C 0.0 **** -0.24
22242 H 28.604539590904068 87.75381001835417 59.168699706624636 H 0.0 **** 0.06
22243 H 27.372284327375468 87.17044695946618 58.02472210614218 H 0.0 **** 0.06
22244 H 27.019989767539556 87.20907958185889 59.770000741682566 H 0.0 **** 0.06
22245 H 28.18181163777669 86.02585703581227 59.12265874204712 H 0.0 **** 0.06
22246 C 84.75180620939966 66.31487469964407 60.98232008972582 C 0.0 **** -0.24
22247 H 85.29768408404777 65.38106583396166 61.11986688270878 H 0.0 **** 0.06
22248 H 83.77624747091863 66.23835527088261 61.465476175010735 H 0.0 **** 0.06
22249 H 84.61619175837507 66.50227792598866 59.91778666383104 H 0.0 **** 0.06
22250 H 85.31523405393938 67.13394805141183 61.428068433488875 H 0.0 **** 0.06
22251 C 0.9831262368249343 35.50876354842967 89.19663419437035 C 0.0 **** -0.24
22252 H 1.2088049541829227 35.18666276235268 90.21323585419123 H 0.0 **** 0.06
22253 H -0.06907756862933301 35.32270282539514 88.98096245509635 H 0.0 **** 0.06
22254 H 1.6027217760901555 34.95248893199579 88.49368638755624 H 0.0 **** 0.06
22255 H 1.1912169206394214 36.57475089569721 89.09976820254252 H 0.0 **** 0.06
22256 C 104.53101423612918 21.45546239595524 14.205977497269345 C 0.0 **** -0.24
22257 H 105.57934931377221 21.41547664029379 14.501520097380137 H 0.0 **** 0.06
22258 H 104.44465226738296 21.95321303123894 13.23919741034862 H 0.0 **** 0.06
22259 H 103.96370663454093 22.011163874194732 14.953273110686393 H 0.0 **** 0.06
22260 H 104.13634872882051 20.441996038093542 14.129919370662076 H 0.0 **** 0.06
22261 C 37.78328747099278 102.4413027287656 3.3030283032670837 C 0.0 **** -0.24
22262 H 37.806529383227115 101.65867223197404 2.543916248901141 H 0.0 **** 0.06
22263 H 37.2729744806303 103.31890068992084 2.903338029166605 H 0.0 **** 0.06
22264 H 38.80208682053803 102.70824285013737 3.5811299226096196 H 0.0 **** 0.06
22265 H 37.249367569110376 102.07856353798661 4.181178366926957 H 0.0 **** 0.06
22266 C 79.96607725808622 81.35851922855295 65.40429705612833 C 0.0 **** -0.24
22267 H 79.1640650670924 80.65887137237542 65.63803840373893 H 0.0 **** 0.06
22268 H 79.55199981524657 82.36125841374746 65.29187906797037 H 0.0 **** 0.06
22269 H 80.44924347920784 81.05889900670184 64.47375855152349 H 0.0 **** 0.06
22270 H 80.69826118306509 81.35576827698998 66.21129075232456 H 0.0 **** 0.06
22271 C 14.544111448578576 22.262021561145446 34.580304847149996 C 0.0 **** -0.24
22272 H 14.700219041705907 21.18343423789881 34.565658043787 H 0.0 **** 0.06
22273 H 13.477596176726877 22.47322484528081 34.66295543209865 H 0.0 **** 0.06
22274 H 14.930621136579191 22.697771529470998 33.660078322580404 H 0.0 **** 0.06
22275 H 15.067033799804989 22.69290402535819 35.43439399483804 H 0.0 **** 0.06
22276 C 93.05577176410706 47.61274173100085 83.9597354046456 C 0.0 **** -0.24
22277 H 93.66995694371337 46.71570573288173 84.02659815805227 H 0.0 **** 0.06
22278 H 93.1118510319894 48.01623192777466 82.94778649116788 H 0.0 **** 0.06
22279 H 93.42063479039393 48.356711291894506 84.66757505716701 H 0.0 **** 0.06
22280 H 92.0215244488756 47.36358831636795 84.19508142636323 H 0.0 **** 0.06
22281 C 84.10345952835235 39.53535326377647 10.290966663664847 C 0.0 **** -0.24
22282 H 83.10675169750039 39.268402765262735 10.64280850613352 H 0.0 **** 0.06
22283 H 84.62089466744743 40.10398849083532 11.065002640515331 H 0.0 **** 0.06
22284 H 84.01936492068694 40.142131107027936 9.38984878260635 H 0.0 **** 0.06
22285 H 84.66544373011698 38.62878684788616 10.068326191474398 H 0.0 **** 0.06
22286 C 88.68152970185764 75.92505253876664 42.30950586443305 C 0.0 **** -0.24
22287 H 89.51102948867948 75.81271024871317 43.00669305439715 H 0.0 **** 0.06
22288 H 88.83562884724398 76.81748234864972 41.702058522465336 H 0.0 **** 0.06
22289 H 87.74928468468227 76.02182822930922 42.86716121676392 H 0.0 **** 0.06
22290 H 88.62905887502774 75.04947576756757 41.662423287080685 H 0.0 **** 0.06
22291 C 39.93701111928624 67.13974141913327 93.59814814808169 C 0.0 **** -0.24
22292 H 40.35481420016981 67.44527362031216 92.63914639320846 H 0.0 **** 0.06
22293 H 39.41555215474892 66.19014208815135 93.4810227699811 H 0.0 **** 0.06
22294 H 39.236094098147305 67.89885035622129 93.94641631925832 H 0.0 **** 0.06
22295 H 40.74100328915398 67.0261586297897 94.32527624434624 H 0.0 **** 0.06
22296 C 105.27248249536129 24.629075985394667 37.15471236145373 C 0.0 **** -0.24
22297 H 104.53092505230039 25.4264581695867 37.19597867800758 H 0.0 **** 0.06
22298 H 104.91237962313403 23.83244223544783 36.502963659441946 H 0.0 **** 0.06
22299 H 105.43766112513661 24.233218895909243 38.15659204435826 H 0.0 **** 0.06
22300 H 106.20956432900203 25.024643500672372 36.76121042126391 H 0.0 **** 0.06
22301 C 72.49873772522051 56.7886555724092 87.01768959259866 C 0.0 **** -0.24
22302 H 73.42111498857389 56.25216973101053 86.79415686345027 H 0.0 **** 0.06
22303 H 71.78768727712992 56.64252106540386 86.20366209144166 H 0.0 **** 0.06
22304 H 72.71394304356471 57.851665827029215 87.12665107682375 H 0.0 **** 0.06
22305 H 72.07198941876754 56.40700175781251 87.94569176055234 H 0.0 **** 0.06
22306 C 66.3399387076418 79.97286902952271 26.656972738434092 C 0.0 **** -0.24
22307 H 65.9403700873213 80.92618296310047 26.311710270625497 H 0.0 **** 0.06
22308 H 67.21878692324344 79.71250073187343 26.066430669075544 H 0.0 **** 0.06
22309 H 65.58245771881292 79.19764032239743 26.54371767711666 H 0.0 **** 0.06
22310 H 66.61940674574328 80.05577134316525 27.70776796411235 H 0.0 **** 0.06
22311 C 74.96472494838922 69.22539009674006 39.71547732992456 C 0.0 **** -0.24
22312 H 75.79469856055657 69.91077062394857 39.54237016296398 H 0.0 **** 0.06
22313 H 75.35263185091647 68.26417696065982 40.0531329080355 H 0.0 **** 0.06
22314 H 74.40776490226175 69.08794229306272 38.78851813314456 H 0.0 **** 0.06
22315 H 74.30495437987008 69.63948233178485 40.478025136246615 H 0.0 **** 0.06
22316 C 58.28754704176228 69.5382738500034 20.40833078105355 C 0.0 **** -0.24
22317 H 58.00405036677674 70.49954285436388 19.97913584379846 H 0.0 **** 0.06
22318 H 57.56091807825297 68.78022422120537 20.113134362925422 H 0.0 **** 0.06
22319 H 58.30828250287493 69.6172917978422 21.495310054610627 H 0.0 **** 0.06
22320 H 59.275234639176404 69.25574277593961 20.045620050696073 H 0.0 **** 0.06
22321 C 40.09584353985254 10.488822369497498 41.594691878502594 C 0.0 **** -0.24
22322 H 40.56408056375497 11.309490549926892 41.0515026449135 H 0.0 **** 0.06
22323 H 39.39557473338347 10.892247521209086 42.32685888981267 H 0.0 **** 0.06
22324 H 40.8628316779604 9.907921351000823 42.105909916248265 H 0.0 **** 0.06
22325 H 39.560538968483236 9.847826117317453 40.89425876328944 H 0.0 **** 0.06
22326 C 74.29966438318058 15.687854359722536 60.678606903522734 C 0.0 **** -0.24
22327 H 74.043742926849 16.688778321356324 61.02620604963795 H 0.0 **** 0.06
22328 H 75.10207072013475 15.753531641907628 59.942903591389836 H 0.0 **** 0.06
22329 H 73.42422870794047 15.227443031833076 60.221382139130355 H 0.0 **** 0.06
22330 H 74.62972742307943 15.08330295786675 61.52365586398054 H 0.0 **** 0.06
22331 C 10.709211764991466 66.20225661939517 46.496268444708335 C 0.0 **** -0.24
22332 H 11.245795198373031 65.25765459247981 46.40197628710024 H 0.0 **** 0.06
22333 H 9.811609671848743 66.05185746616002 47.09588190016649 H 0.0 **** 0.06
22334 H 10.429387501484456 66.56072069663728 45.50527315852463 H 0.0 **** 0.06
22335 H 11.351753438825966 66.93774503300244 46.98093508570827 H 0.0 **** 0.06
22336 C 6.641858736496545 13.938305044778382 16.395056125770424 C 0.0 **** -0.24
22337 H 6.996145888100079 14.446624324929434 15.49860042291948 H 0.0 **** 0.06
22338 H 5.96988398037208 13.12783333016258 16.111561341033507 H 0.0 **** 0.06
22339 H 6.108162865093005 14.64817285473443 17.027492029242666 H 0.0 **** 0.06
22340 H 7.492406542277008 13.53111134755681 16.94274263274707 H 0.0 **** 0.06
22341 C 3.428234962797106 24.946507007728684 69.97705729697454 C 0.0 **** -0.24
22342 H 4.445245539836463 25.30745258869942 70.13333445914525 H 0.0 **** 0.06
22343 H 3.460170077772645 23.99143954333303 69.45237545349184 H 0.0 **** 0.06
22344 H 2.8736070793887336 25.670643904399782 69.38078020621654 H 0.0 **** 0.06
22345 H 2.9375254502078434 24.816539378192516 70.94074979733331 H 0.0 **** 0.06
22346 C 54.81453135604491 4.3092594477852835 77.50965842060026 C 0.0 **** -0.24
22347 H 55.4094310063532 4.249759306448455 76.59778183115488 H 0.0 **** 0.06
22348 H 54.534553903993015 5.346126868142138 77.69363470120638 H 0.0 **** 0.06
22349 H 55.40075132181471 3.935037107783595 78.34858898596589 H 0.0 **** 0.06
22350 H 53.91543640102333 3.70373739892524 77.3959525073678 H 0.0 **** 0.06
22351 C 105.21086039513906 45.071738898633015 19.683754121454683 C 0.0 **** -0.24
22352 H 104.93379417990805 45.401070307896305 18.68304197803218 H 0.0 **** 0.06
22353 H 104.5844019007605 44.22730579510119 19.97406138177763 H 0.0 **** 0.06
22354 H 105.06686748849042 45.89030100446735 20.388378001118554 H 0.0 **** 0.06
22355 H 106.25735419241362 44.76690072691457 19.689766905998596 H 0.0 **** 0.06
22356 C 2.7865726018735018 72.04066286786097 13.560117805007899 C 0.0 **** -0.24
22357 H 3.4424381363354826 71.20900001144913 13.819050352743464 H 0.0 **** 0.06
22358 H 2.009343233074162 72.14001823526783 14.318258150038481 H 0.0 **** 0.06
22359 H 2.3283607387575955 71.85273118236144 12.589921832973847 H 0.0 **** 0.06
22360 H 3.3695118618961715 72.96092870057691 13.51453949498984 H 0.0 **** 0.06
22361 C 22.086623383281378 38.809151570359234 18.426104289087792 C 0.0 **** -0.24
22362 H 21.282657286017127 39.544190894380336 18.449882293376955 H 0.0 **** 0.06
22363 H 21.664463824488458 37.80551125515501 18.496597381091703 H 0.0 **** 0.06
22364 H 22.759371577199076 38.979935549874426 19.266751925711013 H 0.0 **** 0.06
22365 H 22.639918634526396 38.90587953109741 17.492084060482075 H 0.0 **** 0.06
22366 C 97.16367064232784 102.43713056176736 73.09205902002799 C 0.0 **** -0.24
22367 H 97.96633038248697 102.02545218851643 72.48027148628057 H 0.0 **** 0.06
22368 H 97.51759977888274 103.33411945242499 73.60040814880321 H 0.0 **** 0.06
22369 H 96.85338736467848 101.6985300268006 73.83024815576633 H 0.0 **** 0.06
22370 H 96.31691756520985 102.69114277367888 72.4546104010266 H 0.0 **** 0.06
22371 C 0.7812665340219889 38.96857953398404 54.97594404393576 C 0.0 **** -0.24
22372 H 1.3295454222338554 39.7947226934881 54.523658236592404 H 0.0 **** 0.06
22373 H -0.18677822337776018 38.863332436823356 54.48458042646204 H 0.0 **** 0.06
22374 H 0.6303947432123058 39.169116249286105 56.03630267283712 H 0.0 **** 0.06
22375 H 1.3510176967591683 38.04709969342315 54.85813392739177 H 0.0 **** 0.06
22376 C 105.88932405207619 93.38626974243542 9.318240089960842 C 0.0 **** -0.24
22377 H 106.45177661742768 93.1190976944501 8.423986822641211 H 0.0 **** 0.06
22378 H 104.9597046589218 92.81760834009417 9.346818741654507 H 0.0 **** 0.06
22379 H 105.66309261638355 94.45288255270566 9.298766041116917 H 0.0 **** 0.06
22380 H 106.48387059817604 93.15740905485427 10.203368884534166 H 0.0 **** 0.06
22381 C 15.453331832539234 33.653227928680025 32.16358767133269 C 0.0 **** -0.24
22382 H 14.972935530137846 34.256804836038725 32.93406549220694 H 0.0 **** 0.06
22383 H 15.943808223511795 32.79718268418617 32.62760406186909 H 0.0 **** 0.06
22384 H 16.195042744416995 34.25743713630814 31.640862212167775 H 0.0 **** 0.06
22385 H 14.703819320387765 33.30371369155881 31.45443644647409 H 0.0 **** 0.06
22386 C 59.10674947853488 3.488025954605721 108.28665530145604 C 0.0 **** -0.24
22387 H 58.092515951451844 3.878809351386014 108.37758658824434 H 0.0 **** 0.06
22388 H 59.61518441208321 3.5700343973558404 109.24743898014027 H 0.0 **** 0.06
22389 H 59.651079134237534 4.0626682428988605 107.53724139740736 H 0.0 **** 0.06
22390 H 59.06715041615445 2.441510682734303 107.98423103353483 H 0.0 **** 0.06
22391 C 63.04490152696002 44.10031034838528 55.007795417687475 C 0.0 **** -0.24
22392 H 62.044477353911105 43.88273132640131 54.63582700923489 H 0.0 **** 0.06
22393 H 62.97228128627421 44.700466782625625 55.91469358064699 H 0.0 **** 0.06
22394 H 63.60175509631421 44.65296179555659 54.250733174747516 H 0.0 **** 0.06
22395 H 63.561809850721474 43.16665561321122 55.22984126315318 H 0.0 **** 0.06
22396 C 27.042730844347382 92.61816734878687 10.041465541848524 C 0.0 **** -0.24
22397 H 27.288966898278723 93.05305077297282 11.009910647019495 H 0.0 **** 0.06
22398 H 26.30732128766442 93.24533409425447 9.53829921661135 H 0.0 **** 0.06
22399 H 26.631894838488932 91.61930725458586 10.185846920980708 H 0.0 **** 0.06
22400 H 27.945414790007995 92.55559578431371 9.432487462580795 H 0.0 **** 0.06
22401 C 3.103114274831512 43.66041445268904 25.683677775468695 C 0.0 **** -0.24
22402 H 3.7320156895136165 42.77622409848851 25.587516025193636 H 0.0 **** 0.06
22403 H 3.4450442089149362 44.26020427380243 26.52744127758288 H 0.0 **** 0.06
22404 H 2.070069014730336 43.35474358206827 25.85037077581643 H 0.0 **** 0.06
22405 H 3.1639251235429526 44.25051390637984 24.769558320244727 H 0.0 **** 0.06
22406 C 107.17443583035737 8.004922931389089 15.993866121212747 C 0.0 **** -0.24
22407 H 107.2486942284911 8.308831208039948 17.038391957182732 H 0.0 **** 0.06
22408 H 108.09326561493262 7.499515013361986 15.697013665796955 H 0.0 **** 0.06
22409 H 107.02539454348039 8.88510761899198 15.36922599074818 H 0.0 **** 0.06
22410 H 106.32963527140458 7.326170705386588 15.8723909563615 H 0.0 **** 0.06
22411 C 58.011357237924194 60.23386701456158 48.362080687968614 C 0.0 **** -0.24
22412 H 58.74247490270304 60.303876926588856 49.167123715019045 H 0.0 **** 0.06
22413 H 57.12383079036394 60.80720805905969 48.626499852897155 H 0.0 **** 0.06
22414 H 57.73805224214834 59.18962310635709 48.20960516308958 H 0.0 **** 0.06
22415 H 58.44242286125432 60.63325163282636 47.44414655191966 H 0.0 **** 0.06
22416 C 70.38528402877192 19.199899261188662 42.26481198672361 C 0.0 **** -0.24
22417 H 69.95321589935604 19.798934818184478 41.463975422498486 H 0.0 **** 0.06
22418 H 69.97238233345229 18.192128310241202 42.22933531389308 H 0.0 **** 0.06
22419 H 70.15048558540451 19.656062469963985 43.226869460725275 H 0.0 **** 0.06
22420 H 71.46754029466709 19.154019420523042 42.139711252293644 H 0.0 **** 0.06
22421 C 56.08263258802778 28.30447440453503 65.82852457626632 C 0.0 **** -0.24
22422 H 56.865207443916844 28.970606241053495 66.1935722020163 H 0.0 **** 0.06
22423 H 56.43171089802346 27.27270549186364 65.87630538247566 H 0.0 **** 0.06
22424 H 55.843092652305174 28.559567265118517 64.79564460100374 H 0.0 **** 0.06
22425 H 55.19256926308013 28.41741565551972 66.44682890365902 H 0.0 **** 0.06
22426 C 24.849303098946393 106.3845645274939 106.9884582439891 C 0.0 **** -0.24
22427 H 24.920318071874874 106.05787067368708 105.95057830163569 H 0.0 **** 0.06
22428 H 25.61722263982989 107.13197979781631 107.18738464773514 H 0.0 **** 0.06
22429 H 24.995067594692642 105.52956262030706 107.6495378477922 H 0.0 **** 0.06
22430 H 23.865469306279124 106.81773566913805 107.16647655684784 H 0.0 **** 0.06
22431 C 52.08500881495928 61.41169274205302 18.11426578960603 C 0.0 **** -0.24
22432 H 51.852020850105106 60.58826867536091 17.438987952802734 H 0.0 **** 0.06
22433 H 53.16533213126871 61.475061445243526 18.25044122671028 H 0.0 **** 0.06
22434 H 51.60705032351569 61.2374278121534 19.078703547677858 H 0.0 **** 0.06
22435 H 51.71732096063897 62.345631309621865 17.688971613716948 H 0.0 **** 0.06
22436 C 47.61411257297391 21.12980323317163 75.85805641241109 C 0.0 **** -0.24
22437 H 48.27772960179266 20.28326577930602 75.68572986186706 H 0.0 **** 0.06
22438 H 46.578022247579554 20.793860927107175 75.81642307292515 H 0.0 **** 0.06
22439 H 47.78252842903959 21.885483363782612 75.09028143806023 H 0.0 **** 0.06
22440 H 47.81834235296452 21.558299718771707 76.8394894014919 H 0.0 **** 0.06
22441 C 48.19927001519011 93.04062974989998 96.5097949522102 C 0.0 **** -0.24
22442 H 48.206585064977105 94.13043089587553 96.49552347465129 H 0.0 **** 0.06
22443 H 49.072380862652466 92.66531668677843 95.97446853996524 H 0.0 **** 0.06
22444 H 47.29204139592659 92.67674961365832 96.02747015398381 H 0.0 **** 0.06
22445 H 48.22768634523882 92.69062977308809 97.54188132489207 H 0.0 **** 0.06
22446 C 12.7250711946687 107.95628002520385 62.84767419634204 C 0.0 **** -0.24
22447 H 12.700926745174328 106.99542813530275 63.362659118047645 H 0.0 **** 0.06
22448 H 13.194596428845045 107.83247546291494 61.87160235652567 H 0.0 **** 0.06
22449 H 13.298449402527353 108.66997658405302 63.43871425573275 H 0.0 **** 0.06
22450 H 11.707748812792687 108.32409547052043 62.718745384124645 H 0.0 **** 0.06
22451 C 0.8862779029480095 68.0564535751983 73.7148552172979 C 0.0 **** -0.24
22452 H 1.6021628189238015 68.70586895315893 73.20921475581133 H 0.0 **** 0.06
22453 H 1.423022181828884 67.31754733535621 74.30832028606835 H 0.0 **** 0.06
22454 H 0.2700359232846381 67.54890595249094 72.97284244322594 H 0.0 **** 0.06
22455 H 0.25102752804639294 68.6556356328723 74.36619498234768 H 0.0 **** 0.06
22456 C 42.91544820288294 52.96587670628833 31.38705421897606 C 0.0 **** -0.24
22457 H 43.09795012265808 52.49942018578952 32.355201986821925 H 0.0 **** 0.06
22458 H 41.85830069295747 52.8794979038268 31.135975397630574 H 0.0 **** 0.06
22459 H 43.51339931790224 52.46683388584427 30.624453759024192 H 0.0 **** 0.06
22460 H 43.193199771117094 54.01939757063576 31.434862676557856 H 0.0 **** 0.06
22461 C 61.17641592942715 30.6445303566461 32.60035400540818 C 0.0 **** -0.24
22462 H 60.259010315622135 30.258840019068032 33.04713776824076 H 0.0 **** 0.06
22463 H 61.21274090812568 30.36473657722621 31.547686133210277 H 0.0 **** 0.06
22464 H 62.03746516314146 30.22265265661744 33.11892334994053 H 0.0 **** 0.06
22465 H 61.19520065003218 31.730705562932997 32.68941176870112 H 0.0 **** 0.06
22466 C 80.2590978910823 40.52422012816544 106.2480773800867 C 0.0 **** -0.24
22467 H 80.3855393881365 41.55785007518989 105.92602239723269 H 0.0 **** 0.06
22468 H 79.21152957120772 40.346978501521846 106.49433501113857 H 0.0 **** 0.06
22469 H 80.87521123467148 40.33916152078922 107.12718847652904 H 0.0 **** 0.06
22470 H 80.56204211679464 39.8530769086143 105.44346605626562 H 0.0 **** 0.06
22471 C 22.262642936810575 23.58504501793659 86.77824180232463 C 0.0 **** -0.24
22472 H 22.396742684194205 22.931425174838246 85.91645756091535 H 0.0 **** 0.06
22473 H 21.63221100451518 23.088214367397644 87.51626934843186 H 0.0 **** 0.06
22474 H 21.787483542549065 24.512715649037215 86.45933040464546 H 0.0 **** 0.06
22475 H 23.234017528256942 23.807771289996605 87.21950151237242 H 0.0 **** 0.06
22476 C 24.228020422420855 47.8907397638994 74.27297213769265 C 0.0 **** -0.24
22477 H 23.17189356833046 47.704094944246165 74.07814781712 H 0.0 **** 0.06
22478 H 24.399197079156238 48.96450379235014 74.35101768984379 H 0.0 **** 0.06
22479 H 24.825378387263015 47.486095801921394 73.4557888836481 H 0.0 **** 0.06
22480 H 24.515668005683096 47.40731516410929 75.20662478092686 H 0.0 **** 0.06
22481 C 109.32476047864341 57.05927276170064 68.76669079724611 C 0.0 **** -0.24
22482 H 109.35244340964219 57.62031630638191 69.70143171703253 H 0.0 **** 0.06
22483 H 108.474929930207 57.390371884622766 68.169971322127 H 0.0 **** 0.06
22484 H 109.22422062595089 55.99614864924794 68.98512062310073 H 0.0 **** 0.06
22485 H 110.24774211357644 57.23104907917863 68.21311739000605 H 0.0 **** 0.06
22486 C 42.39805020268466 79.93542240873364 59.744253605609515 C 0.0 **** -0.24
22487 H 41.32721788401164 79.84337969073084 59.56096408702717 H 0.0 **** 0.06
22488 H 42.721746452568816 80.94887360661932 59.5050566404729 H 0.0 **** 0.06
22489 H 42.9361447340069 79.22344107457644 59.11908199177395 H 0.0 **** 0.06
22490 H 42.60532550095108 79.72598216102679 60.79433671448828 H 0.0 **** 0.06
22491 C 63.02960116650502 2.184394373785352 13.730226055981372 C 0.0 **** -0.24
22492 H 63.53220916436646 1.712568497187334 14.573931112661505 H 0.0 **** 0.06
22493 H 62.62681651466306 1.4149090600027705 13.070421776328768 H 0.0 **** 0.06
22494 H 63.7436306409208 2.797320600478031 13.179035395970903 H 0.0 **** 0.06
22495 H 62.217607898393226 2.812011837467111 14.095290301663965 H 0.0 **** 0.06
22496 C 11.735086653023753 57.638312246611804 3.084535824789924 C 0.0 **** -0.24
22497 H 10.996999017145704 57.23561522689741 2.390451166059151 H 0.0 **** 0.06
22498 H 11.309445267569064 58.49297580423959 3.6113160418423718 H 0.0 **** 0.06
22499 H 12.618600763848153 57.955423707545236 2.5310632976998164 H 0.0 **** 0.06
22500 H 12.012972068761517 56.86861954678528 3.8048701893506944 H 0.0 **** 0.06
22501 C 54.080808197880266 85.43040062406436 59.48323561639273 C 0.0 **** -0.24
22502 H 54.56282622037804 85.7581743886563 60.40449385200657 H 0.0 **** 0.06
22503 H 54.44036170910151 84.4351836504108 59.220081243237985 H 0.0 **** 0.06
22504 H 54.32039526304972 86.12738116336845 58.679720256284725 H 0.0 **** 0.06
22505 H 53.001218471113106 85.40024164655591 59.629037429011305 H 0.0 **** 0.06
22506 C 81.31884212744964 71.1629598203407 107.30592080354758 C 0.0 **** -0.24
22507 H 82.05295542278867 71.48175102212535 108.04516536204612 H 0.0 **** 0.06
22508 H 81.20927925567705 71.93699851281276 106.54538619921787 H 0.0 **** 0.06
22509 H 80.35894281640492 70.99626573203885 107.79535226683176 H 0.0 **** 0.06
22510 H 81.65220345370562 70.23772529212218 106.83729199485822 H 0.0 **** 0.06
22511 C 44.73806333773709 46.3882755009912 56.56506403915205 C 0.0 **** -0.24
22512 H 45.653578346381636 46.34389159533424 55.973896426895976 H 0.0 **** 0.06
22513 H 44.42169404177332 47.42727845200693 56.665389248024724 H 0.0 **** 0.06
22514 H 44.921914820573875 45.9658085806455 57.55262570196919 H 0.0 **** 0.06
22515 H 43.95630401671471 45.817171432344765 56.06497284429895 H 0.0 **** 0.06
22516 C 76.59927762317182 94.92125312656472 32.025431019902925 C 0.0 **** -0.24
22517 H 76.98174758132666 95.07426155937856 33.035079935028875 H 0.0 **** 0.06
22518 H 76.0510748681146 93.98010430307181 31.98356982052161 H 0.0 **** 0.06
22519 H 77.43123386750705 94.88973433267637 31.32270700026683 H 0.0 **** 0.06
22520 H 75.93246494735058 95.74196881556014 31.762247977852496 H 0.0 **** 0.06
22521 C 60.92223338278245 85.27510098259536 15.124095559898478 C 0.0 **** -0.24
22522 H 61.02542836025236 84.19008810790248 15.140392597611097 H 0.0 **** 0.06
22523 H 60.15903866341063 85.55591270015739 14.396620849703055 H 0.0 **** 0.06
22524 H 61.87420505304473 85.72636129379393 14.84383885830097 H 0.0 **** 0.06
22525 H 60.62951561322146 85.62721198454517 16.11274505833248 H 0.0 **** 0.06
22526 C 63.362796197746775 10.63950657345903 10.09073249244122 C 0.0 **** -0.24
22527 H 63.660553493498185 9.850537484682164 10.781057836288909 H 0.0 **** 0.06
22528 H 64.23040131519224 10.97068099920186 9.52010688138796 H 0.0 **** 0.06
22529 H 62.95570768548009 11.479594958216211 10.653840123136774 H 0.0 **** 0.06
22530 H 62.60240571582176 10.257157420251971 9.408644339372273 H 0.0 **** 0.06
22531 C 89.2637287661976 40.26634499488566 33.40622071678354 C 0.0 **** -0.24
22532 H 89.86823384119535 39.3940981361273 33.65574382912857 H 0.0 **** 0.06
22533 H 89.4393782841322 40.5447519841162 32.36670853815042 H 0.0 **** 0.06
22534 H 89.53774234528578 41.09652820171007 34.05688661476984 H 0.0 **** 0.06
22535 H 88.2095909801184 40.02902396415902 33.545751833467506 H 0.0 **** 0.06
22536 C 92.15886465907427 73.38852416946906 89.98098130564367 C 0.0 **** -0.24
22537 H 92.3579084539697 72.9974896499389 90.9785299411813 H 0.0 **** 0.06
22538 H 92.62862859834853 72.74355613840953 89.23816515819755 H 0.0 **** 0.06
22539 H 92.56827385415077 74.39520103780046 89.89824368825708 H 0.0 **** 0.06
22540 H 91.08345560070123 73.41817147445994 89.80999285059545 H 0.0 **** 0.06
22541 C 12.039350396972637 78.05296960620564 51.69824453597148 C 0.0 **** -0.24
22542 H 12.884346593385544 77.99592794480412 51.011448021787835 H 0.0 **** 0.06
22543 H 11.215828763139417 78.57962556458006 51.216858712660056 H 0.0 **** 0.06
22544 H 12.33930838665868 78.59007422584881 52.59803926976985 H 0.0 **** 0.06
22545 H 11.720084826469918 77.04580635737693 51.96630501536354 H 0.0 **** 0.06
22546 C 42.94660281161717 94.46177171553975 9.54364158216206 C 0.0 **** -0.24
22547 H 42.551288008569145 94.44898287725437 8.527991850306709 H 0.0 **** 0.06
22548 H 44.030002144687245 94.34686861921139 9.513394537048166 H 0.0 **** 0.06
22549 H 42.50905399152495 93.64193005087591 10.114150526290457 H 0.0 **** 0.06
22550 H 42.694107713928815 95.40967256613354 10.018867775920151 H 0.0 **** 0.06
22551 C 35.15762539030957 83.85919120175053 60.84716193601582 C 0.0 **** -0.24
22552 H 36.07324876034224 83.53817141937516 61.342916743976716 H 0.0 **** 0.06
22553 H 34.673317037284775 82.99776922730904 60.386286271127375 H 0.0 **** 0.06
22554 H 35.39795209566527 84.59550745508348 60.08067700653197 H 0.0 **** 0.06
22555 H 34.48475481092399 84.30433257895952 61.58035569512275 H 0.0 **** 0.06
22556 C 91.2398113126765 84.88632784021968 51.324917529632174 C 0.0 **** -0.24
22557 H 90.6590285569404 84.13318537820004 50.79268493075854 H 0.0 **** 0.06
22558 H 91.88255752102542 85.41468641682303 50.620042852960424 H 0.0 **** 0.06
22559 H 91.85346995914593 84.40121816203828 52.08424382099062 H 0.0 **** 0.06
22560 H 90.56352441474164 85.59497645687458 51.802607683483984 H 0.0 **** 0.06
22561 C 85.07176803158086 17.731869846199288 102.43851903747088 C 0.0 **** -0.24
22562 H 83.99489216002442 17.89827848779187 102.451411816323 H 0.0 **** 0.06
22563 H 85.4931514356951 18.00547543210384 103.40645540073729 H 0.0 **** 0.06
22564 H 85.5246866652881 18.343771684621025 101.65866291954262 H 0.0 **** 0.06
22565 H 85.27385678903545 16.67974195244813 102.23885747449867 H 0.0 **** 0.06
22566 C 80.78378267112552 75.33369795542251 48.92973506078755 C 0.0 **** -0.24
22567 H 79.69817552582538 75.23469833741277 48.90546624883922 H 0.0 **** 0.06
22568 H 81.0875532628717 75.77041196620712 49.88226912499988 H 0.0 **** 0.06
22569 H 81.10814554840749 75.97914978068707 48.11341073674237 H 0.0 **** 0.06
22570 H 81.24024748685952 74.35039205222716 48.81919514623959 H 0.0 **** 0.06
22571 C 97.91065018006731 36.965383248570106 19.40385257971633 C 0.0 **** -0.24
22572 H 97.79631441530898 36.36893280877109 20.308974083132966 H 0.0 **** 0.06
22573 H 98.38509737309994 36.363324107567564 18.629050428811865 H 0.0 **** 0.06
22574 H 98.52982839909038 37.836928252656094 19.619092982447626 H 0.0 **** 0.06
22575 H 96.92986242759554 37.29355223651237 19.059435333059923 H 0.0 **** 0.06
22576 C 96.78154369475513 72.97754173457565 110.42772284557441 C 0.0 **** -0.24
22577 H 95.80690542320846 73.44818160534311 110.55415483710678 H 0.0 **** 0.06
22578 H 96.68331351112138 71.89808899631106 110.54750767195397 H 0.0 **** 0.06
22579 H 97.47223633737315 73.36516804422888 111.17721020137422 H 0.0 **** 0.06
22580 H 97.1652772073175 73.19857283561424 109.43127735227984 H 0.0 **** 0.06
22581 C 69.15925424107394 63.236873888223 49.80589945473017 C 0.0 **** -0.24
22582 H 70.15226437665063 62.808556420892984 49.67044563214269 H 0.0 **** 0.06
22583 H 68.73350251178852 63.48099448708096 48.83237937016216 H 0.0 **** 0.06
22584 H 69.23444133379002 64.14371204184334 50.407327985457435 H 0.0 **** 0.06
22585 H 68.51740892725536 62.51659726483888 50.31322470813459 H 0.0 **** 0.06
22586 C 94.33549643280631 20.146449865692553 94.73659364760437 C 0.0 **** -0.24
22587 H 95.36772216212691 20.481889334129708 94.83654430222632 H 0.0 **** 0.06
22588 H 93.87004489715987 20.649986702301984 93.88954569564362 H 0.0 **** 0.06
22589 H 93.78665735279104 20.384981044783476 95.64781496533656 H 0.0 **** 0.06
22590 H 94.3183314713092 19.068867123745896 94.57365339343113 H 0.0 **** 0.06
22591 C 10.126129938482476 24.932991681874853 14.37900276385443 C 0.0 **** -0.24
22592 H 10.175451186560988 25.393319577563716 13.393384552862585 H 0.0 **** 0.06
22593 H 10.530557388261524 25.620622363494974 15.122910890255298 H 0.0 **** 0.06
22594 H 10.70982117212925 24.01175852901372 14.379906743661678 H 0.0 **** 0.06
22595 H 9.087956186379829 24.705296196881292 14.621685232476523 H 0.0 **** 0.06
22596 C 46.14883835588506 25.75288092763415 4.164634595261262 C 0.0 **** -0.24
22597 H 45.85420321064825 25.288681625891368 3.2234200209384056 H 0.0 **** 0.06
22598 H 46.23951463251066 26.830457842966617 4.025999960748038 H 0.0 **** 0.06
22599 H 47.106647945854604 25.34571103267112 4.486420438506229 H 0.0 **** 0.06
22600 H 45.393285210213605 25.54643118886295 4.922906115938773 H 0.0 **** 0.06
22601 C 51.470639833841915 81.3513991919516 7.360497186814868 C 0.0 **** -0.24
22602 H 50.86202583737162 80.5825376467487 7.835263025979387 H 0.0 **** 0.06
22603 H 51.69081583021108 81.0563308093131 6.333668085459635 H 0.0 **** 0.06
22604 H 52.402559160439466 81.47065575934735 7.91248716475323 H 0.0 **** 0.06
22605 H 50.925623244472604 82.29514715550346 7.357965262577395 H 0.0 **** 0.06
22606 C 32.10276895420509 80.64691985677135 1.7688556681241892 C 0.0 **** -0.24
22607 H 31.039112839639472 80.85211678334417 1.6465992210424645 H 0.0 **** 0.06
22608 H 32.24461751134439 79.59060792336902 1.999803445343133 H 0.0 **** 0.06
22609 H 32.49775334150419 81.25267703688243 2.584328718988104 H 0.0 **** 0.06
22610 H 32.62887198072076 80.89166620469535 0.8461430576611804 H 0.0 **** 0.06
22611 C 98.78883641098243 60.79378963922892 51.05411985633861 C 0.0 **** -0.24
22612 H 97.90876704340178 61.42346605493148 51.18498716875841 H 0.0 **** 0.06
22613 H 99.08946534446983 60.38472643651983 52.01882876889203 H 0.0 **** 0.06
22614 H 99.60291454454749 61.38947712827243 50.64181667615077 H 0.0 **** 0.06
22615 H 98.55338394179313 59.97728227420339 50.370305063461856 H 0.0 **** 0.06
22616 C 30.04341893417353 13.741857038396176 21.975114546436203 C 0.0 **** -0.24
22617 H 29.865130187395152 13.895463905219088 23.039352198020197 H 0.0 **** 0.06
22618 H 30.19615685975907 14.705493634492086 21.48870279743778 H 0.0 **** 0.06
22619 H 29.183317546733576 13.242069419348155 21.531157793570657 H 0.0 **** 0.06
22620 H 30.931833709361456 13.122583355957659 21.8414988568114 H 0.0 **** 0.06
22621 C 9.172230690646074 86.47839180833955 94.25239211732526 C 0.0 **** -0.24
22622 H 9.13269525254097 85.70992648965313 95.02399998640935 H 0.0 **** 0.06
22623 H 8.187866933109547 86.9351289939708 94.14411502677147 H 0.0 **** 0.06
22624 H 9.47068336685426 86.02794957665867 93.30600767995722 H 0.0 **** 0.06
22625 H 9.89778680346015 87.24042299716689 94.53642998632084 H 0.0 **** 0.06
22626 C 24.744130175093915 42.62877068795767 86.2665019925746 C 0.0 **** -0.24
22627 H 24.54442903167302 41.949194478458054 87.09545820330425 H 0.0 **** 0.06
22628 H 23.82387330977747 43.14265299350086 85.98902045861502 H 0.0 **** 0.06
22629 H 25.11549767675217 42.06046777917402 85.41352149325259 H 0.0 **** 0.06
22630 H 25.49329805072142 43.36087805786859 86.5694559011115 H 0.0 **** 0.06
22631 C 108.53833146228631 7.507311648301254 89.09546064601017 C 0.0 **** -0.24
22632 H 107.98517440067278 6.685132908838526 88.64073089177793 H 0.0 **** 0.06
22633 H 107.87449006358784 8.361480161278251 89.22890531733793 H 0.0 **** 0.06
22634 H 109.36819006809391 7.789336141099881 88.44765002591629 H 0.0 **** 0.06
22635 H 108.92435790319124 7.192521946304751 90.06495523522318 H 0.0 **** 0.06
22636 C 101.45352605113725 79.01051232315298 20.43560147226856 C 0.0 **** -0.24
22637 H 102.14656383241152 79.79122263969747 20.748425297034885 H 0.0 **** 0.06
22638 H 100.51934350013677 79.11113114535752 20.98919663612736 H 0.0 **** 0.06
22639 H 101.89133243922662 78.0332368000841 20.637704971644837 H 0.0 **** 0.06
22640 H 101.25594006754802 79.10654963426246 19.368145465304508 H 0.0 **** 0.06
22641 C 2.18229433397255 34.726218605734914 26.57108592724586 C 0.0 **** -0.24
22642 H 3.0795223330833323 34.93641739048863 25.988283080302722 H 0.0 **** 0.06
22643 H 1.561833288097148 34.00902363723789 26.034865694815522 H 0.0 **** 0.06
22644 H 1.6235995701136403 35.650536484706414 26.722721745350285 H 0.0 **** 0.06
22645 H 2.4667332466225957 34.310409146712225 27.537834470449752 H 0.0 **** 0.06
22646 C 0.030948164561319658 53.51591081223967 27.75814321958069 C 0.0 **** -0.24
22647 H -0.6688676530519544 52.75927022935067 28.113104609985896 H 0.0 **** 0.06
22648 H 0.8028049158505439 53.040309967547664 27.15216403061578 H 0.0 **** 0.06
22649 H 0.4924461119678627 54.01138765499474 28.611415155482433 H 0.0 **** 0.06
22650 H -0.503515124188568 54.25178217792209 27.15647876908926 H 0.0 **** 0.06
22651 C 69.69182551830173 22.124766818207682 90.51270249754442 C 0.0 **** -0.24
22652 H 69.7143873604877 21.896438806664495 89.44710641272785 H 0.0 **** 0.06
22653 H 70.40568729924752 21.4867855342014 91.03555531223721 H 0.0 **** 0.06
22654 H 68.68926192281629 21.942652886125252 90.90070961352406 H 0.0 **** 0.06
22655 H 69.95665797650832 23.169911577515567 90.66670196599412 H 0.0 **** 0.06
22656 C 24.680237461616457 76.35236063377724 80.15927983382966 C 0.0 **** -0.24
22657 H 24.41374207402498 75.85885207118548 79.22485208387715 H 0.0 **** 0.06
22658 H 23.889088382269392 77.04717150656967 80.44105051299027 H 0.0 **** 0.06
22659 H 25.614258478003308 76.89971291291573 80.02746929303586 H 0.0 **** 0.06
22660 H 24.804618033525117 75.60518992580182 80.94195157097275 H 0.0 **** 0.06
22661 C 75.08998103455025 66.35576843614656 9.920213993604193 C 0.0 **** -0.24
22662 H 74.82728447693091 66.56787765489673 8.884489194007571 H 0.0 **** 0.06
22663 H 74.37330916233577 66.8413160554187 10.583850003408514 H 0.0 **** 0.06
22664 H 76.09084199359307 66.73543022208624 10.126425087232775 H 0.0 **** 0.06
22665 H 75.06737117242409 65.27931226103262 10.088093701457069 H 0.0 **** 0.06
22666 C 82.32611595531577 91.4526964835984 102.45492280714882 C 0.0 **** -0.24
22667 H 81.93278144232318 90.43976613760191 102.36671947496137 H 0.0 **** 0.06
22668 H 81.50625355064244 92.14392619268503 102.65315226269809 H 0.0 **** 0.06
22669 H 82.82276617001185 91.73233799836714 101.52619255354426 H 0.0 **** 0.06
22670 H 83.04235585883714 91.4924514126426 103.27619543337175 H 0.0 **** 0.06
22671 C 18.43120259770987 107.34592065249961 107.42253425825885 C 0.0 **** -0.24
22672 H 18.193193515881035 108.02422454369298 108.24168090081167 H 0.0 **** 0.06
22673 H 17.92145371901296 106.39437967773296 107.57838565946685 H 0.0 **** 0.06
22674 H 19.508851801691662 107.18006445632034 107.38970533511775 H 0.0 **** 0.06
22675 H 18.10215529720125 107.78389440717831 106.48055094524415 H 0.0 **** 0.06
22676 C 84.45547675556872 9.697405792774532 110.09183829049111 C 0.0 **** -0.24
22677 H 84.2101472323724 8.719844915587757 110.5082010432486 H 0.0 **** 0.06
22678 H 85.35531709454675 10.081674784888932 110.5730144310213 H 0.0 **** 0.06
22679 H 83.62797416360668 10.384483207580558 110.26844467283189 H 0.0 **** 0.06
22680 H 84.62798069477293 9.60326102574011 109.020066464949 H 0.0 **** 0.06
22681 C 62.74204064321191 86.71626892628996 58.09910799505307 C 0.0 **** -0.24
22682 H 62.96113754133853 87.76991031298564 57.92991862421952 H 0.0 **** 0.06
22683 H 61.667806710471496 86.58452859738188 58.228114463680534 H 0.0 **** 0.06
22684 H 63.261143529441824 86.37606095278801 58.995651081087786 H 0.0 **** 0.06
22685 H 63.07989772555061 86.13321782667128 57.241835118604804 H 0.0 **** 0.06
22686 C 89.84917731236783 34.39050789869768 48.639935643712704 C 0.0 **** -0.24
22687 H 90.22293164805438 33.454707191732325 48.22509418564829 H 0.0 **** 0.06
22688 H 89.29920819569583 34.9340132704973 47.87187796558112 H 0.0 **** 0.06
22689 H 90.68767250030655 34.99565452318828 48.98305815756606 H 0.0 **** 0.06
22690 H 89.18746984526598 34.17684101084146 49.479631091924944 H 0.0 **** 0.06
22691 C 84.59851062255677 80.03957469162292 49.051075102908214 C 0.0 **** -0.24
22692 H 84.5114614506704 79.86683879711325 47.97797187972503 H 0.0 **** 0.06
22693 H 85.46525948576551 79.50192456844577 49.43572363555427 H 0.0 **** 0.06
22694 H 83.69834464336574 79.68272240269688 49.55034189091754 H 0.0 **** 0.06
22695 H 84.71993800183266 81.10633240823802 49.23746197186654 H 0.0 **** 0.06
22696 C 64.52573608790544 19.97938693820376 85.16423286612795 C 0.0 **** -0.24
22697 H 64.75536179305959 18.915706569579612 85.23665458516194 H 0.0 **** 0.06
22698 H 63.79343540446661 20.139923110301027 84.37229244303131 H 0.0 **** 0.06
22699 H 65.43676996877309 20.53233665416421 84.93419234995932 H 0.0 **** 0.06
22700 H 64.11810173618414 20.32879481833116 86.11286667490879 H 0.0 **** 0.06
22701 C 16.932185992731263 18.06082207348355 36.4453125470196 C 0.0 **** -0.24
22702 H 16.99793413046602 17.373665896081675 35.60165425705094 H 0.0 **** 0.06
22703 H 16.614857586832102 19.041697799850283 36.0905460706762 H 0.0 **** 0.06
22704 H 17.909046451216255 18.144740229609 36.92187013509215 H 0.0 **** 0.06
22705 H 16.206829620897665 17.682124840703807 37.16521202384865 H 0.0 **** 0.06
22706 C 88.31346807047436 44.4088228044011 106.36760232189795 C 0.0 **** -0.24
22707 H 88.89916684393111 43.51023710663287 106.5592827303725 H 0.0 **** 0.06
22708 H 88.84190808532492 45.276962733630285 106.76135978358914 H 0.0 **** 0.06
22709 H 87.3423680623111 44.32058225157556 106.85519245105871 H 0.0 **** 0.06
22710 H 88.1707359497579 44.52647336494476 105.29261641274041 H 0.0 **** 0.06
22711 C 36.152559517896115 24.836766585407332 33.2398503234688 C 0.0 **** -0.24
22712 H 35.6902735878569 25.561004679497415 32.568981749637715 H 0.0 **** 0.06
22713 H 37.21211671098758 24.74367059749588 33.00035616339528 H 0.0 **** 0.06
22714 H 35.66520167568963 23.868744012395126 33.11958640063301 H 0.0 **** 0.06
22715 H 36.04135025956704 25.17417512724512 34.2702719373811 H 0.0 **** 0.06
22716 C 54.57170130476152 91.55102183851315 96.75957448092612 C 0.0 **** -0.24
22717 H 55.067625237097104 92.45450455232125 97.11311532189796 H 0.0 **** 0.06
22718 H 53.56683680141862 91.50118254514041 97.17881438995644 H 0.0 **** 0.06
22719 H 55.14133273075902 90.67683034559269 97.07436169139919 H 0.0 **** 0.06
22720 H 54.51120911648894 91.57225342244706 95.67078445490887 H 0.0 **** 0.06
22721 C 28.378422071274713 11.068113118306869 23.232610679814997 C 0.0 **** -0.24
22722 H 27.558703133064427 11.6734102506948 22.845348513625908 H 0.0 **** 0.06
22723 H 27.995189916470366 10.370961903017388 23.97777242927191 H 0.0 **** 0.06
22724 H 29.12446657806848 11.717168703183148 23.691391875085372 H 0.0 **** 0.06
22725 H 28.834930300993932 10.511157249496122 22.414595331308078 H 0.0 **** 0.06
22726 C 55.92594798955883 86.29411657270089 65.3873300810389 C 0.0 **** -0.24
22727 H 56.2625748045885 87.02023964409445 66.12696065125965 H 0.0 **** 0.06
22728 H 55.01716021455968 86.65823555752463 64.90806410032758 H 0.0 **** 0.06
22729 H 55.72333277698499 85.3422273766028 65.87791213472659 H 0.0 **** 0.06
22730 H 56.70331333524796 86.15667674204953 64.63427081791792 H 0.0 **** 0.06
22731 C 47.32868987925464 53.719879787980425 10.933261307421716 C 0.0 **** -0.24
22732 H 48.26564801445297 53.845527950543506 10.39205557255461 H 0.0 **** 0.06
22733 H 47.37702328248523 52.813742600048805 11.537515420147841 H 0.0 **** 0.06
22734 H 46.506383728776434 53.63784802107099 10.221294171998338 H 0.0 **** 0.06
22735 H 47.16409161444023 54.58097828721503 11.581007029442162 H 0.0 **** 0.06
22736 C 81.9539528968088 17.18499404993861 61.96360058587402 C 0.0 **** -0.24
22737 H 82.6218006611586 16.615264035175628 62.61009639344411 H 0.0 **** 0.06
22738 H 80.91978723297069 16.990698997784563 62.24753989730624 H 0.0 **** 0.06
22739 H 82.1086946986133 16.886247966512585 60.92769209879282 H 0.0 **** 0.06
22740 H 82.16623356986457 18.249555681969184 62.07021325209661 H 0.0 **** 0.06
22741 C 45.69227783037235 86.46769150541209 63.74886609746933 C 0.0 **** -0.24
22742 H 45.525649098057045 87.42676812677965 64.23800776289978 H 0.0 **** 0.06
22743 H 44.73556682449406 86.0444418497143 63.442434173966376 H 0.0 **** 0.06
22744 H 46.185263403678675 85.78725540955057 64.44298616062761 H 0.0 **** 0.06
22745 H 46.32358571506029 86.61169308617244 62.87118693804916 H 0.0 **** 0.06
22746 C 30.516929119122068 44.017845812025584 2.7830264277294248 C 0.0 **** -0.24
22747 H 29.970776393112736 44.46685736196463 3.613126182444006 H 0.0 **** 0.06
22748 H 31.39331913057442 43.493810002179316 3.1653623891285037 H 0.0 **** 0.06
22749 H 30.833165584247084 44.7989502875742 2.0909656809599824 H 0.0 **** 0.06
22750 H 29.869633523146433 43.311976257960154 2.262122079405387 H 0.0 **** 0.06
22751 C 21.652391370481922 35.014748014075025 34.04916303779791 C 0.0 **** -0.24
22752 H 21.20690268342176 35.76917788476942 33.40063382694282 H 0.0 **** 0.06
22753 H 21.494363257183068 35.29105999589123 35.09118966295725 H 0.0 **** 0.06
22754 H 22.721912322962154 34.95094879554671 33.84853570057051 H 0.0 **** 0.06
22755 H 21.187915237993366 34.04812329094361 33.853366419803024 H 0.0 **** 0.06
22756 C 23.57817771988107 105.64643835882966 34.50250038506056 C 0.0 **** -0.24
22757 H 24.00220678582386 104.93255628184454 33.79610638793186 H 0.0 **** 0.06
22758 H 24.375552035264263 106.06554773722468 35.116717197738325 H 0.0 **** 0.06
22759 H 22.855450731008773 105.13841356017876 35.14112331242215 H 0.0 **** 0.06
22760 H 23.08087027302301 106.4473399923078 33.955325265557306 H 0.0 **** 0.06
22761 C 38.97350987979085 103.66446916394614 105.17095102015418 C 0.0 **** -0.24
22762 H 40.062356328130164 103.62541548054952 105.14945853425077 H 0.0 **** 0.06
22763 H 38.58349734860734 103.45056685167017 104.1755225745866 H 0.0 **** 0.06
22764 H 38.65165181539207 104.65818618873615 105.48173803773139 H 0.0 **** 0.06
22765 H 38.59751236735718 102.92389628081548 105.87717154569123 H 0.0 **** 0.06
22766 C 12.132527489000697 67.21748362688385 17.458617069493553 C 0.0 **** -0.24
22767 H 12.992635457058256 66.63151025805348 17.78127351777258 H 0.0 **** 0.06
22768 H 12.476372164718594 68.13695288727348 16.98454021390256 H 0.0 **** 0.06
22769 H 11.515201745256121 67.46230294624405 18.32284744946924 H 0.0 **** 0.06
22770 H 11.545302487527398 66.63795406497798 16.745397552080803 H 0.0 **** 0.06
22771 C 78.8054556837273 47.425009802247445 93.83303699817819 C 0.0 **** -0.24
22772 H 79.6272586627883 46.866921448851144 93.38604045334235 H 0.0 **** 0.06
22773 H 77.94709322442277 47.410197780027886 93.16027009904435 H 0.0 **** 0.06
22774 H 79.11600749864604 48.45589626473162 94.00204405397515 H 0.0 **** 0.06
22775 H 78.53075249779106 46.96771799703981 94.78390614156477 H 0.0 **** 0.06
22776 C 28.03793838756016 68.38921387567444 103.38906335005983 C 0.0 **** -0.24
22777 H 27.208049058751612 68.6520780595348 104.04558973313415 H 0.0 **** 0.06
22778 H 27.828692348667687 67.43585669103578 102.90410573007347 H 0.0 **** 0.06
22779 H 28.953140013811634 68.3066652950829 103.97564025545994 H 0.0 **** 0.06
22780 H 28.160837862361007 69.1637619472699 102.63173068883403 H 0.0 **** 0.06
22781 C 60.73244349366462 56.88147073633228 68.51282565994059 C 0.0 **** -0.24
22782 H 61.17983820759454 56.77425179995647 67.52493812832053 H 0.0 **** 0.06
22783 H 61.12850582915996 57.775813122757455 68.9952830396361 H 0.0 **** 0.06
22784 H 60.96990216872044 56.006610525861106 69.11636324542631 H 0.0 **** 0.06
22785 H 59.651036700783436 56.97144987111823 68.41278663078644 H 0.0 **** 0.06
22786 C 57.55481506734892 85.25939562214191 52.732637104441665 C 0.0 **** -0.24
22787 H 57.702817201031316 85.97273760391454 53.54370882888935 H 0.0 **** 0.06
22788 H 56.76084623861028 85.61673740040095 52.076530324204896 H 0.0 **** 0.06
22789 H 57.27673579924933 84.2912214164893 53.1466507021654 H 0.0 **** 0.06
22790 H 58.479349786902205 85.16014971661724 52.16332649866871 H 0.0 **** 0.06
22791 C 86.98253035738833 105.78746066388943 64.28598947129427 C 0.0 **** -0.24
22792 H 87.39881689623579 105.54380036919613 65.26388259032214 H 0.0 **** 0.06
22793 H 87.1552808835599 106.842105544197 64.07011868838289 H 0.0 **** 0.06
22794 H 85.91041766935422 105.58660080774723 64.28854256877486 H 0.0 **** 0.06
22795 H 87.4641681358114 105.17605802051284 63.52371620873342 H 0.0 **** 0.06
22796 C 65.90743118076843 69.63626193086077 0.10621808474861894 C 0.0 **** -0.24
22797 H 65.87021964772151 68.71726624275675 -0.4776833601115982 H 0.0 **** 0.06
22798 H 66.71730398096311 70.2669742722573 -0.2605812177265818 H 0.0 **** 0.06
22799 H 66.08165876875962 69.39353631444402 1.1542055496827999 H 0.0 **** 0.06
22800 H 64.96054232562948 70.167270893985 0.008931367149784819 H 0.0 **** 0.06
22801 C 66.12150004550932 14.077898060757505 91.1376486082717 C 0.0 **** -0.24
22802 H 66.65989618895969 14.578535874091202 91.94253003832192 H 0.0 **** 0.06
22803 H 66.53688150587294 13.081348232842458 90.98903031712553 H 0.0 **** 0.06
22804 H 66.22430685600122 14.65605249634423 90.21903553998168 H 0.0 **** 0.06
22805 H 65.06710510097923 13.99775737497717 91.40088703859715 H 0.0 **** 0.06
22806 C 21.798903265564007 27.501317991716398 74.02391249175751 C 0.0 **** -0.24
22807 H 22.56407543459386 26.726989613908977 74.09086710259234 H 0.0 **** 0.06
22808 H 21.536144814565148 27.839442471980924 75.02612781250285 H 0.0 **** 0.06
22809 H 20.914018883012005 27.09507655914939 73.5338305942016 H 0.0 **** 0.06
22810 H 22.18207258576666 28.341691782566514 73.44529441169026 H 0.0 **** 0.06
22811 C 96.21910960921089 5.96630181451664 69.92900719681126 C 0.0 **** -0.24
22812 H 96.72214448125773 5.824858053380424 70.88534358530376 H 0.0 **** 0.06
22813 H 96.44088012977323 5.123875820908381 69.27450206317272 H 0.0 **** 0.06
22814 H 96.5723174991665 6.889166124225213 69.46733040684398 H 0.0 **** 0.06
22815 H 95.1433424760847 6.028901748583195 70.09004137397568 H 0.0 **** 0.06
22816 C 26.910500349753136 72.46566987213319 67.08946477964749 C 0.0 **** -0.24
22817 H 27.102992780856084 71.47024252027063 67.48951324688495 H 0.0 **** 0.06
22818 H 27.795945445588643 73.08781667420163 67.22191513591592 H 0.0 **** 0.06
22819 H 26.070149228851875 72.91382331082642 67.61977433893834 H 0.0 **** 0.06
22820 H 26.672687979121918 72.39122106459905 66.0288402801774 H 0.0 **** 0.06
22821 C 92.21243846686423 16.699272693488098 3.106512285776148 C 0.0 **** -0.24
22822 H 91.31219042154015 17.20130573729793 2.753807096743685 H 0.0 **** 0.06
22823 H 93.0866950557386 17.145991752264038 2.633711908298949 H 0.0 **** 0.06
22824 H 92.16113036165295 15.641012215247954 2.8522409247662495 H 0.0 **** 0.06
22825 H 92.28789720612082 16.808509933221046 4.18864257486689 H 0.0 **** 0.06
22826 C 67.4077750293331 14.6514887644347 55.39710311178288 C 0.0 **** -0.24
22827 H 67.3595275196111 15.740146070777282 55.44163678985814 H 0.0 **** 0.06
22828 H 66.92147773629364 14.30307179870097 54.48617706066974 H 0.0 **** 0.06
22829 H 66.90007253935818 14.230576149175484 56.26526295324741 H 0.0 **** 0.06
22830 H 68.45099230981094 14.335174997771983 55.39732960441442 H 0.0 **** 0.06
22831 C 85.10611963243427 58.52041654260016 61.287773648964645 C 0.0 **** -0.24
22832 H 86.1333288572662 58.156505237348014 61.26248514346253 H 0.0 **** 0.06
22833 H 84.44325136734041 57.76927903651567 60.857695905632966 H 0.0 **** 0.06
22834 H 85.03433155604164 59.44302613041505 60.711441476193386 H 0.0 **** 0.06
22835 H 84.81529281371654 58.71397649149375 62.320346671581206 H 0.0 **** 0.06
22836 C 67.22528056391468 81.76220625182555 101.06380594750912 C 0.0 **** -0.24
22837 H 66.19894080828612 81.90433973339148 100.72541784166954 H 0.0 **** 0.06
22838 H 67.23762591273305 81.65425238432448 102.14915583188638 H 0.0 **** 0.06
22839 H 67.82377323966426 82.62717498806262 100.77763756710269 H 0.0 **** 0.06
22840 H 67.63839600495868 80.86443313390723 100.60420200654235 H 0.0 **** 0.06
22841 C 43.702287371714135 100.28166157837911 5.829171452871105 C 0.0 **** -0.24
22842 H 43.66957305600158 101.15449087951839 6.481773591241186 H 0.0 **** 0.06
22843 H 44.34222012672126 99.51964125290243 6.2745879418533566 H 0.0 **** 0.06
22844 H 44.10305473673375 100.56949536246397 4.857333012016994 H 0.0 **** 0.06
22845 H 42.69545643037185 99.88356992355709 5.704158624804988 H 0.0 **** 0.06
22846 C 39.89489232287298 64.48620872664839 84.77831381600669 C 0.0 **** -0.24
22847 H 39.12434624696493 63.854781118748434 84.33500952342911 H 0.0 **** 0.06
22848 H 39.51825637599359 65.50477448934657 84.87515860363624 H 0.0 **** 0.06
22849 H 40.77833396001773 64.48344161689096 84.14033817553303 H 0.0 **** 0.06
22850 H 40.15722038338242 64.10006136406011 85.76367109772703 H 0.0 **** 0.06
22851 C 110.10671550428523 54.388906140254896 108.62884115573863 C 0.0 **** -0.24
22852 H 111.14891754359658 54.50455209805953 108.33021482506834 H 0.0 **** 0.06
22853 H 109.99935331527193 53.484435083966055 109.22796570265993 H 0.0 **** 0.06
22854 H 109.4801951888191 54.313310749470425 107.74036248994742 H 0.0 **** 0.06
22855 H 109.80059361858274 55.25356766773985 109.21715700096942 H 0.0 **** 0.06
22856 C 7.387008223358734 105.04012492810784 58.80026457515933 C 0.0 **** -0.24
22857 H 7.903946814634125 105.12774642714999 59.75633295197186 H 0.0 **** 0.06
22858 H 7.0034605916963955 106.01638155378907 58.50469746120809 H 0.0 **** 0.06
22859 H 6.558648671654524 104.3385423265288 58.89957744441807 H 0.0 **** 0.06
22860 H 8.082629383676505 104.676281850142 58.04364103583581 H 0.0 **** 0.06
22861 C 54.66938091645099 70.65717138399776 109.45804644942223 C 0.0 **** -0.24
22862 H 54.73922176356564 69.62978841799759 109.10062480611631 H 0.0 **** 0.06
22863 H 53.657795304928044 70.84804447356257 109.81843349435403 H 0.0 **** 0.06
22864 H 54.900925659852305 71.34271162665598 108.64241272268077 H 0.0 **** 0.06
22865 H 55.379390924807694 70.80730351245498 110.27122715165372 H 0.0 **** 0.06
22866 C 10.380058073134933 26.917326196743133 42.69081716769864 C 0.0 **** -0.24
22867 H 9.723922410269381 26.244249855876546 42.13776560691093 H 0.0 **** 0.06
22868 H 11.29233562608296 27.086863994639884 42.11848391146356 H 0.0 **** 0.06
22869 H 10.630896198696604 26.46950731568728 43.65284017101749 H 0.0 **** 0.06
22870 H 9.871154691999294 27.86717360008994 42.854034744092075 H 0.0 **** 0.06
22871 C 98.32432189436065 13.96328738375658 30.909919163004076 C 0.0 **** -0.24
22872 H 98.85151439356078 13.224074110304173 31.513069674692133 H 0.0 **** 0.06
22873 H 98.90231388046394 14.177830822025584 30.010854023579043 H 0.0 **** 0.06
22874 H 98.19714387710599 14.878970660072184 31.488313211944217 H 0.0 **** 0.06
22875 H 97.34671911104638 13.572808557412316 30.62903704468286 H 0.0 **** 0.06
22876 C 6.314074841455778 103.52249541699433 89.97655691548385 C 0.0 **** -0.24
22877 H 7.214534743367423 104.08166547168071 89.72214867501404 H 0.0 **** 0.06
22878 H 6.269669645475801 102.61457041853407 89.37450198354631 H 0.0 **** 0.06
22879 H 5.436289892702646 104.13560842391794 89.77495655911531 H 0.0 **** 0.06
22880 H 6.338415535174988 103.25717122152068 91.03350125395428 H 0.0 **** 0.06
22881 C 26.340608986345103 95.08819151196172 59.834980632801035 C 0.0 **** -0.24
22882 H 25.59360549024146 94.29540918249216 59.801340420100075 H 0.0 **** 0.06
22883 H 26.12685375413193 95.82290049225114 59.05908043498849 H 0.0 **** 0.06
22884 H 27.330101100591207 94.66141875601443 59.669901495937694 H 0.0 **** 0.06
22885 H 26.312629016219034 95.57282964520383 60.811921691320975 H 0.0 **** 0.06
22886 C 76.61384422708164 77.64804078155221 45.21253199153766 C 0.0 **** -0.24
22887 H 76.51788757652744 76.71080881893087 45.760021958335685 H 0.0 **** 0.06
22888 H 77.32051482672162 78.29856609193969 45.72707467842477 H 0.0 **** 0.06
22889 H 75.6410963935264 78.1374466707693 45.15732062491958 H 0.0 **** 0.06
22890 H 76.97551799540821 77.44385897958902 44.20407590514593 H 0.0 **** 0.06
22891 C 69.12863161869068 66.47333624731782 16.95328340197505 C 0.0 **** -0.24
22892 H 70.03991994902901 65.88262292194075 17.05057222849235 H 0.0 **** 0.06
22893 H 69.071678602182 66.88922049902108 15.9471669109342 H 0.0 **** 0.06
22894 H 69.14180177722709 67.28344102741151 17.68226729193545 H 0.0 **** 0.06
22895 H 68.26227557224863 65.83723727497167 17.133161144389312 H 0.0 **** 0.06
22896 C 109.45936121400156 96.7839583767375 30.703190121831426 C 0.0 **** -0.24
22897 H 109.7238168989834 96.95628052164534 31.746428347053893 H 0.0 **** 0.06
22898 H 110.36094654909014 96.81547923695284 30.09013455309477 H 0.0 **** 0.06
22899 H 108.76763103575824 97.55776982500662 30.370633475430452 H 0.0 **** 0.06
22900 H 108.98694917795954 95.80728366338401 30.60490464420809 H 0.0 **** 0.06
22901 C 50.64659148944233 99.01810956138681 68.64282764289896 C 0.0 **** -0.24
22902 H 51.27351416714484 98.98327603097196 67.75239220797789 H 0.0 **** 0.06
22903 H 50.44735613958821 100.05705603838089 68.90691145991542 H 0.0 **** 0.06
22904 H 51.15986202507469 98.52527765724001 69.4682461914694 H 0.0 **** 0.06
22905 H 49.70473465919147 98.50644543751126 68.44354820898116 H 0.0 **** 0.06
22906 C 38.505964431808536 62.93440086094887 60.19549891668888 C 0.0 **** -0.24
22907 H 39.59030422792944 62.85145105867127 60.12182891909845 H 0.0 **** 0.06
22908 H 38.12599159056009 63.50032732734633 59.3450680874153 H 0.0 **** 0.06
22909 H 38.24300609727226 63.44618146211067 61.12057848019499 H 0.0 **** 0.06
22910 H 38.065006858357094 61.93745879620445 60.19467334467373 H 0.0 **** 0.06
22911 C 46.57299920680931 51.556555913351644 42.26864159949292 C 0.0 **** -0.24
22912 H 46.66231816191668 50.788173184705556 43.03698974379395 H 0.0 **** 0.06
22913 H 47.53154849110404 51.67778388373438 41.76399143879496 H 0.0 **** 0.06
22914 H 46.28190944092626 52.50024180867533 42.729694088954574 H 0.0 **** 0.06
22915 H 45.81526149962867 51.25814303301681 41.54315684826665 H 0.0 **** 0.06
22916 C 102.28584980496007 109.56708692033308 107.35507917222 C 0.0 **** -0.24
22917 H 102.00695978999212 109.16621004926199 108.32991857454593 H 0.0 **** 0.06
22918 H 101.88497062577784 108.92627095098662 106.57043565174665 H 0.0 **** 0.06
22919 H 103.37190420206196 109.6046588278021 107.27608624222707 H 0.0 **** 0.06
22920 H 101.87875061485178 110.5725149027524 107.24697938808376 H 0.0 **** 0.06
22921 C 40.367944947169335 50.76932953657632 101.50922619212002 C 0.0 **** -0.24
22922 H 40.43858047274141 49.78055528030694 101.96268052676835 H 0.0 **** 0.06
22923 H 40.01671254774927 50.67269669499501 100.48170166796845 H 0.0 **** 0.06
22924 H 41.350187078246556 51.24169471519443 101.51444714701113 H 0.0 **** 0.06
22925 H 39.667886425883246 51.37988240460817 102.07753938040518 H 0.0 **** 0.06
22926 C 8.043561700157511 96.03460066583776 94.71061542605365 C 0.0 **** -0.24
22927 H 8.836186941049192 95.55898995832113 94.1332954134988 H 0.0 **** 0.06
22928 H 7.258030622613589 95.3073342274704 94.91669842602532 H 0.0 **** 0.06
22929 H 7.628996387583754 96.86704074082236 94.14192142964467 H 0.0 **** 0.06
22930 H 8.45269768474867 96.40399523653308 95.65092288908158 H 0.0 **** 0.06
22931 C 12.575214405635393 20.75737135372293 108.0131690420878 C 0.0 **** -0.24
22932 H 12.183024257202732 21.381734301273752 108.81538066185445 H 0.0 **** 0.06
22933 H 13.526596541206999 20.32370617876464 108.32226985382191 H 0.0 **** 0.06
22934 H 12.726057435289192 21.365334900809074 107.12074287003938 H 0.0 **** 0.06
22935 H 11.86667116535402 19.958743038939815 107.79340320071793 H 0.0 **** 0.06
22936 C 66.98350399648461 27.247011874533257 28.753928826933617 C 0.0 **** -0.24
22937 H 67.77227283569806 26.50903660852407 28.61122315826838 H 0.0 **** 0.06
22938 H 66.89230377681366 27.48132348641832 29.815189110817016 H 0.0 **** 0.06
22939 H 66.03868693908908 26.843454395185205 28.38742656343517 H 0.0 **** 0.06
22940 H 67.22924035960705 28.15328463792399 28.20097402005871 H 0.0 **** 0.06
22941 C 66.92383730422 27.23959367043247 66.61181468031941 C 0.0 **** -0.24
22942 H 65.93104211490396 27.468302902589187 66.22379979496867 H 0.0 **** 0.06
22943 H 67.31920786509667 26.36155686606824 66.1017331292536 H 0.0 **** 0.06
22944 H 66.85878894265096 27.040601487227775 67.68119698732323 H 0.0 **** 0.06
22945 H 67.58576842036388 28.089339079227813 66.43923494488001 H 0.0 **** 0.06
22946 C 110.2536677070075 0.5697911003550757 95.92897770022745 C 0.0 **** -0.24
22947 H 109.70243960965487 1.1340039809618503 96.68118587418252 H 0.0 **** 0.06
22948 H 111.2759553793849 0.4106714839354453 96.270924413844 H 0.0 **** 0.06
22949 H 110.26643833890145 1.1288909045434536 94.99254984414728 H 0.0 **** 0.06
22950 H 109.76861752481503 -0.3929678954495728 95.770575911518 H 0.0 **** 0.06
22951 C 21.097930151807816 89.73089776326773 110.19551029922906 C 0.0 **** -0.24
22952 H 21.147304604459396 88.96345127277047 109.42255893089754 H 0.0 **** 0.06
22953 H 20.853189694669975 90.690528701163 109.73921067341513 H 0.0 **** 0.06
22954 H 22.061625101780983 89.80153357376072 110.69880276098638 H 0.0 **** 0.06
22955 H 20.32800761284227 89.46609730813348 110.92022799281915 H 0.0 **** 0.06
22956 C 11.69620659100724 14.5190672920709 84.66715735326525 C 0.0 **** -0.24
22957 H 11.810591853565882 13.552251638684453 84.17711936659515 H 0.0 **** 0.06
22958 H 10.684383662609832 14.89024403153789 84.50522247359572 H 0.0 **** 0.06
22959 H 12.414106657088112 15.224650759000554 84.24852838028801 H 0.0 **** 0.06
22960 H 11.876017555915382 14.407673049016012 85.73580369470932 H 0.0 **** 0.06
22961 C 15.58032343334763 84.59648917488238 86.5402463931041 C 0.0 **** -0.24
22962 H 15.965203714688357 83.8723104711683 87.25801104002659 H 0.0 **** 0.06
22963 H 14.784275409207623 84.1387691896291 85.95237844479497 H 0.0 **** 0.06
22964 H 16.385468581385425 84.91381480405698 85.87732446452213 H 0.0 **** 0.06
22965 H 15.18763652032132 85.46314352020636 87.0733280327657 H 0.0 **** 0.06
22966 C 71.20600649519133 77.82198043178659 26.12298446155117 C 0.0 **** -0.24
22967 H 71.79363605227019 77.294636278448 26.874962132759094 H 0.0 **** 0.06
22968 H 70.41500152264922 77.16761459006645 25.754601121589815 H 0.0 **** 0.06
22969 H 71.85293601372166 78.11270033750927 25.295491349751046 H 0.0 **** 0.06
22970 H 70.76341561524157 78.71252938465346 26.568253552534827 H 0.0 **** 0.06
22971 C 12.38786962507416 61.77269569227161 76.16870989841284 C 0.0 **** -0.24
22972 H 12.2843185817743 62.512870359763895 76.96134178755173 H 0.0 **** 0.06
22973 H 12.69232161949158 62.2674812784436 75.2464881608266 H 0.0 **** 0.06
22974 H 11.43234349595184 61.27029692923554 76.01478757143298 H 0.0 **** 0.06
22975 H 13.14149821300785 61.03825136753869 76.45343122462852 H 0.0 **** 0.06
22976 C 9.106225265282816 27.494387142730062 51.036276364044625 C 0.0 **** -0.24
22977 H 8.14866778967297 27.095528711715495 51.37096780505442 H 0.0 **** 0.06
22978 H 9.600534613086936 26.763272879418395 50.39552680207106 H 0.0 **** 0.06
22979 H 9.73450904336859 27.70321203084019 51.90203059062003 H 0.0 **** 0.06
22980 H 8.940797851355597 28.414616733489503 50.47663901128175 H 0.0 **** 0.06
22981 C 84.27517498324963 1.3742008235157641 82.80763924119907 C 0.0 **** -0.24
22982 H 83.95380099314963 0.40054981757785413 83.1795213231518 H 0.0 **** 0.06
22983 H 85.14881678411004 1.248271845827702 82.16799822038799 H 0.0 **** 0.06
22984 H 84.53110728763335 2.016874798850381 83.65066806953695 H 0.0 **** 0.06
22985 H 83.46679627779281 1.8298432874035768 82.2354307425953 H 0.0 **** 0.06
22986 C 58.96955257712483 107.9815124702979 88.92677291789242 C 0.0 **** -0.24
22987 H 58.42178651380602 107.10937627433577 88.57043669416885 H 0.0 **** 0.06
22988 H 60.036308966439435 107.7585103161565 88.94370132650141 H 0.0 **** 0.06
22989 H 58.63422385906213 108.23475268753239 89.93367206458316 H 0.0 **** 0.06
22990 H 58.7845739410062 108.82433436713245 88.25992365152054 H 0.0 **** 0.06
22991 C 99.13846373587803 12.869856440288203 25.502549968751126 C 0.0 **** -0.24
22992 H 98.3392967756167 12.188979644602682 25.211641685125358 H 0.0 **** 0.06
22993 H 99.55343251802839 13.344813326346355 24.61312001842657 H 0.0 **** 0.06
22994 H 99.9211491093256 12.312599031299612 26.016764408707942 H 0.0 **** 0.06
22995 H 98.73854243002219 13.634315813720121 26.17019032600794 H 0.0 **** 0.06
22996 C 20.195992964813428 102.90658839803359 6.316884618747281 C 0.0 **** -0.24
22997 H 19.647628703555114 101.98967741035943 6.103191945212757 H 0.0 **** 0.06
22998 H 20.961943343299367 103.05726890318383 5.556420869384226 H 0.0 **** 0.06
22999 H 20.66661613236235 102.82810775961808 7.297188338216188 H 0.0 **** 0.06
23000 H 19.506440989906338 103.75112860969861 6.311818120060025 H 0.0 **** 0.06
23001 C 62.01628405896179 74.69905536388183 76.65648025848785 C 0.0 **** -0.24
23002 H 62.723876750063596 74.43926376190586 77.44489558244533 H 0.0 **** 0.06
23003 H 62.52788397425951 75.27760402258491 75.88650898070593 H 0.0 **** 0.06
23004 H 61.20460795339113 75.29107112421804 77.07875380308707 H 0.0 **** 0.06
23005 H 61.6114971640539 73.78721089174257 76.2169464369847 H 0.0 **** 0.06
23006 C 99.26422835220085 8.806151789918104 0.5558670488421287 C 0.0 **** -0.24
23007 H 99.00122082854995 8.39865092351944 -0.4202650202047087 H 0.0 **** 0.06
23008 H 99.56592562585683 7.995869847555554 1.2187935966608654 H 0.0 **** 0.06
23009 H 98.40081872375349 9.320541140256637 0.9784911971928238 H 0.0 **** 0.06
23010 H 100.0877150289063 9.511326620837039 0.444373240281295 H 0.0 **** 0.06
23011 C 86.40150038508534 26.536851681506164 49.02041323481308 C 0.0 **** -0.24
23012 H 85.50101153565907 26.121181837054053 49.4729805371814 H 0.0 **** 0.06
23013 H 86.29555296631986 26.537098149338362 47.93508753784499 H 0.0 **** 0.06
23014 H 87.26272893472566 25.931463513203482 49.30204464951976 H 0.0 **** 0.06
23015 H 86.54485143288397 27.55890719405687 49.37146558466151 H 0.0 **** 0.06
23016 C 31.58190458305208 46.04805507955565 97.5856298987293 C 0.0 **** -0.24
23017 H 30.549737352503143 46.21806214779085 97.89284019189726 H 0.0 **** 0.06
23018 H 31.615238274614995 45.86516872841615 96.51178579500316 H 0.0 **** 0.06
23019 H 31.979729684304232 45.18228404930964 98.11448376704436 H 0.0 **** 0.06
23020 H 32.18083416252381 46.92673770029565 97.8247050653581 H 0.0 **** 0.06
23021 C 107.74389232629024 23.721485580045965 96.55424761877748 C 0.0 **** -0.24
23022 H 107.94636775510928 24.112559825836485 97.55163540580912 H 0.0 **** 0.06
23023 H 106.6744161218972 23.540203352772693 96.44491254231787 H 0.0 **** 0.06
23024 H 108.2884044824803 22.788093443913 96.4126060028193 H 0.0 **** 0.06
23025 H 108.06737843283184 24.44761129038264 95.80704481525368 H 0.0 **** 0.06
23026 C 18.44017022722082 68.5005308381918 90.01002689428296 C 0.0 **** -0.24
23027 H 17.496029891857148 68.75820779678837 89.53056227314063 H 0.0 **** 0.06
23028 H 18.431900297914567 67.44522802183995 90.28524567088803 H 0.0 **** 0.06
23029 H 18.57060881930707 69.10936707871146 90.90498888530408 H 0.0 **** 0.06
23030 H 19.26214189980425 68.68932045542743 89.3193107477993 H 0.0 **** 0.06
23031 C 104.14141924076469 8.081184357476687 94.78790569716583 C 0.0 **** -0.24
23032 H 104.63218833572515 9.044969781419724 94.92348624380108 H 0.0 **** 0.06
23033 H 104.8671993014249 7.349781990937913 94.43383993833353 H 0.0 **** 0.06
23034 H 103.34020123042612 8.181906458328825 94.05524647937028 H 0.0 **** 0.06
23035 H 103.72346223169114 7.7492495439815485 95.73819246464629 H 0.0 **** 0.06
23036 C 31.97463999363663 86.06454869712984 40.74557217103745 C 0.0 **** -0.24
23037 H 32.84256310655206 85.89527016957587 40.10963593650757 H 0.0 **** 0.06
23038 H 31.379256563055748 85.15361872287555 40.79801099435093 H 0.0 **** 0.06
23039 H 31.369713566710146 86.87088279896241 40.32812974392738 H 0.0 **** 0.06
23040 H 32.30664401722112 86.34171608518032 41.74641048487365 H 0.0 **** 0.06
23041 C 95.98917276321771 19.846750113218548 64.18887060054375 C 0.0 **** -0.24
23042 H 95.24267273156455 19.216461950971592 64.67167308913059 H 0.0 **** 0.06
23043 H 96.96137276091515 19.35511759541251 64.23219953300959 H 0.0 **** 0.06
23044 H 96.04319986345725 20.80474530392462 64.70544294742028 H 0.0 **** 0.06
23045 H 95.70963195903225 20.010421317634325 63.148380629576835 H 0.0 **** 0.06
23046 C 21.23554352046881 97.00798367377956 51.60853781362659 C 0.0 **** -0.24
23047 H 22.110192454766434 96.36865826489611 51.7262704354706 H 0.0 **** 0.06
23048 H 21.07226504493093 97.20905759941982 50.54973275580705 H 0.0 **** 0.06
23049 H 21.40073144742567 97.94765752682491 52.13580125768005 H 0.0 **** 0.06
23050 H 20.36079630353447 96.50750498699986 52.023699370393814 H 0.0 **** 0.06
23051 C 101.07170973609793 21.7864786910161 61.02398715215759 C 0.0 **** -0.24
23052 H 101.97992592239588 21.867671477876968 61.621120987934944 H 0.0 **** 0.06
23053 H 100.37862164062726 21.097856549986147 61.50925539636705 H 0.0 **** 0.06
23054 H 101.32256242277415 21.41069351444338 60.03243678894728 H 0.0 **** 0.06
23055 H 100.60741007527128 22.767910951436306 60.934548857271125 H 0.0 **** 0.06
23056 C 5.871038635080893 75.52449891252462 52.885147157936935 C 0.0 **** -0.24
23057 H 5.338735016652365 75.25194276095715 53.795959811092565 H 0.0 **** 0.06
23058 H 5.192880194788387 76.04816553633259 52.210340371887355 H 0.0 **** 0.06
23059 H 6.243671039229781 74.62279845043437 52.39853629666606 H 0.0 **** 0.06
23060 H 6.708985145787537 76.17502663523885 53.1347609317809 H 0.0 **** 0.06
23061 C 58.65026682571488 22.971594495159394 41.30071571077758 C 0.0 **** -0.24
23062 H 57.67948388304751 22.71592718218176 40.87699835707457 H 0.0 **** 0.06
23063 H 59.44065051089427 22.57161063595538 40.664616398279975 H 0.0 **** 0.06
23064 H 58.73549174633348 22.543156896173457 42.29954787277097 H 0.0 **** 0.06
23065 H 58.74615154428352 24.05592358409922 41.36050117129719 H 0.0 **** 0.06
23066 C 59.36737415760827 105.66310990991042 58.879635291155296 C 0.0 **** -0.24
23067 H 59.162627797957526 104.59464741565856 58.82053787808246 H 0.0 **** 0.06
23068 H 60.36414101007824 105.86469149182514 58.48814914049308 H 0.0 **** 0.06
23069 H 59.31316942540509 105.9864625181562 59.919274498625214 H 0.0 **** 0.06
23070 H 58.62823245037123 106.20709420681234 58.292005879247284 H 0.0 **** 0.06
23071 C 66.24904512146946 91.75661084450587 13.425186466354592 C 0.0 **** -0.24
23072 H 65.92064930947356 92.22426678030962 12.49668720624718 H 0.0 **** 0.06
23073 H 65.46150409245718 91.10271376980211 13.800813295910537 H 0.0 **** 0.06
23074 H 66.46574387851854 92.52808213397395 14.164212473485701 H 0.0 **** 0.06
23075 H 67.14920478592393 91.17014966813406 13.237126173611927 H 0.0 **** 0.06
23076 C 45.84198245898028 91.0512311859618 100.46633171105084 C 0.0 **** -0.24
23077 H 46.248442726836856 90.24046632685025 101.07082912117015 H 0.0 **** 0.06
23078 H 44.918472811216276 91.41361680166926 100.91941492299028 H 0.0 **** 0.06
23079 H 45.635431398629976 90.68708692138239 99.46086254105207 H 0.0 **** 0.06
23080 H 46.56613099513672 91.8650513001736 100.4168695712924 H 0.0 **** 0.06
23081 C 74.13552298062604 43.220995343309966 20.819768189309283 C 0.0 **** -0.24
23082 H 74.28419219150118 44.12431851094817 20.227701065336472 H 0.0 **** 0.06
23083 H 75.0260788333818 42.595724327378846 20.758358519254074 H 0.0 **** 0.06
23084 H 73.27713374113927 42.670710252985614 20.43239750754796 H 0.0 **** 0.06
23085 H 73.95251008104117 43.49386927990875 21.8586535446615 H 0.0 **** 0.06
23086 C 84.87532005468825 42.09036459742839 84.7753873329078 C 0.0 **** -0.24
23087 H 84.83346230072436 41.14692357048989 85.32030542069924 H 0.0 **** 0.06
23088 H 83.95866895226868 42.218136037180614 84.19960530187433 H 0.0 **** 0.06
23089 H 85.73059936379076 42.08130415831863 84.10056521805433 H 0.0 **** 0.06
23090 H 84.97817377126637 42.913804358832294 85.48151392289216 H 0.0 **** 0.06
23091 C 37.925970342193004 16.763860262232356 94.289356150145 C 0.0 **** -0.24
23092 H 38.16129191962303 15.785868020658953 94.70948312491755 H 0.0 **** 0.06
23093 H 37.32943455915716 16.63579788100874 93.38559574778333 H 0.0 **** 0.06
23094 H 38.85097629556507 17.286488093017965 94.04455439621846 H 0.0 **** 0.06
23095 H 37.361471319669306 17.345711496203194 95.01792373298687 H 0.0 **** 0.06
23096 C 87.9047547747345 19.81570077547522 63.601794037662145 C 0.0 **** -0.24
23097 H 87.49103954248103 19.18009326997587 64.38389152106598 H 0.0 **** 0.06
23098 H 87.44726802701818 19.560393473834353 62.64582447653214 H 0.0 **** 0.06
23099 H 88.9825973626261 19.662162394709952 63.54166837813128 H 0.0 **** 0.06
23100 H 87.69872245055903 20.86059686232133 63.8364504718824 H 0.0 **** 0.06
23101 C 80.27578243532139 88.02704241430149 10.356851512415943 C 0.0 **** -0.24
23102 H 81.2499890747315 88.11455211372822 9.8761029340385 H 0.0 **** 0.06
23103 H 79.50918478423426 87.87073971630565 9.597263934409426 H 0.0 **** 0.06
23104 H 80.05979607679683 88.9416256143227 10.908306995994693 H 0.0 **** 0.06
23105 H 80.28466149648438 87.18155424046739 11.044444867834812 H 0.0 **** 0.06
23106 C 82.8579348142203 61.812607888958894 93.76655511585756 C 0.0 **** -0.24
23107 H 81.89483055816268 62.26911698189252 93.53425474158706 H 0.0 **** 0.06
23108 H 82.73583737567006 61.10855410890605 94.59006422659797 H 0.0 **** 0.06
23109 H 83.56646873772218 62.588889484499816 94.05426201632119 H 0.0 **** 0.06
23110 H 83.23188502351698 61.28675306530164 92.88878372537499 H 0.0 **** 0.06
23111 C 19.47822504316221 82.49241926283896 69.77995687848033 C 0.0 **** -0.24
23112 H 18.719143763229482 83.16198104366487 69.37563478110195 H 0.0 **** 0.06
23113 H 19.54216751752108 81.5983716890726 69.15881914506559 H 0.0 **** 0.06
23114 H 19.209339920452265 82.21005888380421 70.7979024299812 H 0.0 **** 0.06
23115 H 20.443182631716525 82.99890134665193 69.78647325053015 H 0.0 **** 0.06
23116 C 105.34385045742411 40.08783602945687 105.86750077195293 C 0.0 **** -0.24
23117 H 104.94574138877012 39.3026056812906 106.51047528251105 H 0.0 **** 0.06
23118 H 106.41188006187112 39.931809005116094 105.72150770650946 H 0.0 **** 0.06
23119 H 105.1785687518967 41.05924213127156 106.33455422118831 H 0.0 **** 0.06
23120 H 104.83674057959698 40.05856070524385 104.90240216255269 H 0.0 **** 0.06
23121 C 104.56408499757015 1.5036946503428936 85.51540344166347 C 0.0 **** -0.24
23122 H 105.04324032254823 0.9808661421569553 84.68751318964627 H 0.0 **** 0.06
23123 H 105.30662539403806 1.7249210723484794 86.28265920486211 H 0.0 **** 0.06
23124 H 103.78039170349007 0.8746669042689348 85.93737813021272 H 0.0 **** 0.06
23125 H 104.12788413390643 2.4345691348626133 85.1527614105753 H 0.0 **** 0.06
23126 C 97.8161034744874 110.36021627893754 53.547773321945215 C 0.0 **** -0.24
23127 H 98.88726032984536 110.3173701969729 53.3512258130508 H 0.0 **** 0.06
23128 H 97.29168209493199 110.65467680452508 52.63827236633455 H 0.0 **** 0.06
23129 H 97.61891787272862 111.08941032168318 54.333426302535145 H 0.0 **** 0.06
23130 H 97.46670611202423 109.37801579594188 53.8661589831633 H 0.0 **** 0.06
23131 C 38.43638192946321 31.347962030210795 18.59212882418423 C 0.0 **** -0.24
23132 H 37.941547350070095 32.183025201870976 19.08860440180959 H 0.0 **** 0.06
23133 H 37.78563896831446 30.95226815281103 17.811766901068665 H 0.0 **** 0.06
23134 H 38.646840573686745 30.565629102136654 19.321195398033453 H 0.0 **** 0.06
23135 H 39.37044706387158 31.691831897888108 18.147210180564542 H 0.0 **** 0.06
23136 C 103.35657052883674 39.975580265654 109.68046866949041 C 0.0 **** -0.24
23137 H 102.65475526978416 39.98053386348323 110.51361239369717 H 0.0 **** 0.06
23138 H 104.09735938995276 39.19140688984403 109.83460717581661 H 0.0 **** 0.06
23139 H 103.85748036188578 40.941914417890445 109.62140614246334 H 0.0 **** 0.06
23140 H 102.81749394928671 39.788417339071884 108.7516601731097 H 0.0 **** 0.06
23141 C 54.771717214447285 19.427185410345714 18.194200932653587 C 0.0 **** -0.24
23142 H 53.97016408067952 19.207091913580086 17.48804497768748 H 0.0 **** 0.06
23143 H 54.872618709671634 20.506895420710947 18.303881868281024 H 0.0 **** 0.06
23144 H 55.707122724977886 19.00908251172646 17.82176671183106 H 0.0 **** 0.06
23145 H 54.53465871967185 18.984413787811008 19.161083677354497 H 0.0 **** 0.06
23146 C 51.90230480838787 49.29777915725018 76.1965334830399 C 0.0 **** -0.24
23147 H 50.91280143189775 48.903315627750615 75.96498146886421 H 0.0 **** 0.06
23148 H 52.33143025272244 49.74908184606016 75.30161728707085 H 0.0 **** 0.06
23149 H 52.54501305050462 48.48659007078408 76.5396590434583 H 0.0 **** 0.06
23150 H 51.819464076580374 50.05093783675233 76.97931000634748 H 0.0 **** 0.06
23151 C 95.41457540585242 17.786467302142 76.91676835016858 C 0.0 **** -0.24
23152 H 94.56639931696634 17.241516987629865 76.50132250256677 H 0.0 **** 0.06
23153 H 95.70522661593577 18.582765526055226 76.23089679585998 H 0.0 **** 0.06
23154 H 96.25130546918899 17.10349264612809 77.05816522007318 H 0.0 **** 0.06
23155 H 95.13117155313921 18.218701118569015 77.87662924363293 H 0.0 **** 0.06
23156 C 103.89156193086559 68.19104458204517 32.36620611157145 C 0.0 **** -0.24
23157 H 104.55842212685947 67.89523833236123 33.17558725366051 H 0.0 **** 0.06
23158 H 103.20071744464455 67.3755046358409 32.148648523236766 H 0.0 **** 0.06
23159 H 104.47861826488266 68.4180856962988 31.47633706375646 H 0.0 **** 0.06
23160 H 103.32802758971727 69.07446975568898 32.664361575435926 H 0.0 **** 0.06
23161 C 106.61562298906307 85.46814152112762 18.519156862178377 C 0.0 **** -0.24
23162 H 107.4139598324318 86.15642155542935 18.797935708553496 H 0.0 **** 0.06
23163 H 106.60707175108121 85.34106860278933 17.435920434652246 H 0.0 **** 0.06
23164 H 105.6574381166949 85.87177037921498 18.845184756940597 H 0.0 **** 0.06
23165 H 106.78566563385363 84.50303110861643 18.99805998677951 H 0.0 **** 0.06
23166 C 91.88228340251942 74.9024158967577 7.664316846698327 C 0.0 **** -0.24
23167 H 91.88498873319293 75.02846538090603 8.747077184317916 H 0.0 **** 0.06
23168 H 92.706086652843 75.46918867612149 7.2308211281615655 H 0.0 **** 0.06
23169 H 90.93771798240738 75.26469167599777 7.25836344310477 H 0.0 **** 0.06
23170 H 92.00120150340535 73.84587345190704 7.422479463671607 H 0.0 **** 0.06
23171 C 72.45113474951467 83.75806970300579 56.79130967769089 C 0.0 **** -0.24
23172 H 71.92020847674021 83.434123244132 55.89594788697951 H 0.0 **** 0.06
23173 H 71.73071583576342 84.02482835136146 57.56466157092552 H 0.0 **** 0.06
23174 H 73.0675639319301 84.62568533380909 56.55428868036046 H 0.0 **** 0.06
23175 H 73.08570311050417 82.94856400978819 57.15017064248332 H 0.0 **** 0.06
23176 C 54.80239934803154 67.95607342124072 77.08311996198553 C 0.0 **** -0.24
23177 H 55.36370448670698 68.13303690934146 76.1665447518289 H 0.0 **** 0.06
23178 H 54.77777823410685 66.88660640308285 77.29300051218988 H 0.0 **** 0.06
23179 H 53.783515503705615 68.32671362443267 76.96283955206052 H 0.0 **** 0.06
23180 H 55.28321924784086 68.47813972641575 77.91032895877507 H 0.0 **** 0.06
23181 C 33.02883067811223 90.42309964686045 3.4056723568489815 C 0.0 **** -0.24
23182 H 33.35769556126499 90.24313595111576 2.382543015111338 H 0.0 **** 0.06
23183 H 33.75433484874611 91.05733005743481 3.915166440047841 H 0.0 **** 0.06
23184 H 32.94449535510708 89.47186061750692 3.9317499418553155 H 0.0 **** 0.06
23185 H 32.05831354869565 90.91878453629658 3.3935601257572046 H 0.0 **** 0.06
23186 C 9.400469779494102 103.22308716159633 103.25792304043753 C 0.0 **** -0.24
23187 H 10.118167358338212 103.62365790416119 103.97232760902008 H 0.0 **** 0.06
23188 H 9.86157788754744 103.16752617016118 102.27120064667471 H 0.0 **** 0.06
23189 H 8.528067680546911 103.8752262856981 103.21505256467364 H 0.0 **** 0.06
23190 H 9.09303556002385 102.22508324956819 103.57265657627572 H 0.0 **** 0.06
23191 C 3.5508389650955667 31.225653494339696 76.01552226739015 C 0.0 **** -0.24
23192 H 2.6255465834623237 31.46440281442659 76.5407237027886 H 0.0 **** 0.06
23193 H 3.786281762352525 30.170514134888975 76.15633553802033 H 0.0 **** 0.06
23194 H 4.361296836740019 31.836340183099566 76.41305657248333 H 0.0 **** 0.06
23195 H 3.4282269069737197 31.432343338233963 74.95186378142652 H 0.0 **** 0.06
23196 C 18.384114418840824 54.593327755251266 38.01460899317407 C 0.0 **** -0.24
23197 H 18.337224867198557 54.76214746541149 36.939242098840666 H 0.0 **** 0.06
23198 H 18.747024484922093 53.58356610451318 38.20797510990536 H 0.0 **** 0.06
23199 H 17.389319265486876 54.71099302937506 38.44516590587977 H 0.0 **** 0.06
23200 H 19.06288905775594 55.316604421705364 38.4660528580703 H 0.0 **** 0.06
23201 C 93.49174003251767 95.47998852196797 24.75651132043113 C 0.0 **** -0.24
23202 H 93.08314318704686 96.38010494304328 24.2974538428538 H 0.0 **** 0.06
23203 H 93.81045987493776 95.70417144345042 25.774849402438733 H 0.0 **** 0.06
23204 H 94.34625993474836 95.13210909416647 24.176661909490065 H 0.0 **** 0.06
23205 H 92.7270971333379 94.70356860721176 24.77708012694181 H 0.0 **** 0.06
23206 C 39.618230194881534 76.63078023051149 55.21730660284331 C 0.0 **** -0.24
23207 H 39.63155290453636 75.99885813250167 56.10545169763594 H 0.0 **** 0.06
23208 H 40.614801667715014 77.03731844691674 55.044813954008134 H 0.0 **** 0.06
23209 H 38.912239336213254 77.44830730325128 55.36395970904235 H 0.0 **** 0.06
23210 H 39.313596331035335 76.03848269471906 54.354335814432176 H 0.0 **** 0.06
23211 C 34.67860534805857 57.3164728563119 4.223655940905758 C 0.0 **** -0.24
23212 H 35.09432211055599 56.51139552638983 4.830545434509645 H 0.0 **** 0.06
23213 H 34.72986464273879 58.252637313406524 4.780216234465399 H 0.0 **** 0.06
23214 H 33.63936495164944 57.09175036739648 3.9853601306815563 H 0.0 **** 0.06
23215 H 35.25179265049644 57.409523961224345 3.3014696711035185 H 0.0 **** 0.06
23216 C 40.80381267292705 92.75514153989428 36.522968518306584 C 0.0 **** -0.24
23217 H 40.712335424130515 91.93914678824194 35.8068022246992 H 0.0 **** 0.06
23218 H 40.73133229223242 92.3597568036925 37.53644139268846 H 0.0 **** 0.06
23219 H 40.00260783351672 93.4761338918172 36.35530619573339 H 0.0 **** 0.06
23220 H 41.76804565705527 93.24698982931227 36.39328905533921 H 0.0 **** 0.06
23221 C 48.82359246907325 52.36026633921105 80.08040227138596 C 0.0 **** -0.24
23222 H 48.68946203887626 53.01634976893732 79.21967853405403 H 0.0 **** 0.06
23223 H 49.85739249834239 52.016938486136894 80.11701113973413 H 0.0 **** 0.06
23224 H 48.158460393325186 51.50191481939456 79.98836587257233 H 0.0 **** 0.06
23225 H 48.58884482552199 52.90652331762033 80.99363474929822 H 0.0 **** 0.06
23226 C 22.07204022398696 23.47082712085566 1.5429039151107702 C 0.0 **** -0.24
23227 H 21.504955653168366 24.379055624042252 1.3399438576848581 H 0.0 **** 0.06
23228 H 21.49892717955794 22.827328591576247 2.2112113797298463 H 0.0 **** 0.06
23229 H 23.019055104778374 23.732199707156497 2.0139738314138356 H 0.0 **** 0.06
23230 H 22.26342541375371 22.945669027671897 0.6078566707339661 H 0.0 **** 0.06
23231 C 59.268016119627134 13.589364660614052 70.00797455611331 C 0.0 **** -0.24
23232 H 58.51535356130336 14.356129551818938 69.82676648613852 H 0.0 **** 0.06
23233 H 60.260372239231685 14.040436965804673 69.97766132288552 H 0.0 **** 0.06
23234 H 59.19493875689608 12.819082490586283 69.23953857115256 H 0.0 **** 0.06
23235 H 59.10139992107736 13.141809634245945 70.98793184427666 H 0.0 **** 0.06
23236 C 80.0801675051165 18.535051543897566 82.2337293681437 C 0.0 **** -0.24
23237 H 79.05238243728692 18.501150021402424 81.8710320837947 H 0.0 **** 0.06
23238 H 80.41652027808966 19.571239066670984 82.27407758746206 H 0.0 **** 0.06
23239 H 80.72165203295178 17.969318396744796 81.5580746214757 H 0.0 **** 0.06
23240 H 80.1274160481515 18.098415483766274 83.23089194938257 H 0.0 **** 0.06
23241 C 102.80009551139935 72.64857980582156 91.67470564465748 C 0.0 **** -0.24
23242 H 102.27537671616359 73.43262109819187 92.22001485500337 H 0.0 **** 0.06
23243 H 102.32739997319023 72.50410362429113 90.70198810439427 H 0.0 **** 0.06
23244 H 102.75629769557388 71.71924356922455 92.24223416451562 H 0.0 **** 0.06
23245 H 103.84140427180911 72.9396715902346 91.53252467120885 H 0.0 **** 0.06
23246 C 51.23791227594492 18.16176083843112 22.26741488146498 C 0.0 **** -0.24
23247 H 52.23632213342205 17.764204825348088 22.453341673697413 H 0.0 **** 0.06
23248 H 50.936693075733984 17.922874919567334 21.247550069841587 H 0.0 **** 0.06
23249 H 51.2482013662688 19.243455194307046 22.40012573517142 H 0.0 **** 0.06
23250 H 50.53273545044104 17.71602064275322 22.969319491059128 H 0.0 **** 0.06
23251 C 21.904361624745007 89.76205377736912 60.143944256240104 C 0.0 **** -0.24
23252 H 22.80733192279496 89.97647978942445 59.57172411370391 H 0.0 **** 0.06
23253 H 21.39772479465296 90.69594233220889 60.38683313474564 H 0.0 **** 0.06
23254 H 22.172470191924674 89.24260727701987 61.063660427257844 H 0.0 **** 0.06
23255 H 21.24019891269515 89.13204889822488 59.55079708781983 H 0.0 **** 0.06
23256 C 95.67712381674451 24.269613164790485 62.248559032819344 C 0.0 **** -0.24
23257 H 96.0407169339648 23.732356709467126 63.12494782684308 H 0.0 **** 0.06
23258 H 96.24065963228847 23.95375336798054 61.36984475938593 H 0.0 **** 0.06
23259 H 95.8089452154738 25.34093584496884 62.39926587221302 H 0.0 **** 0.06
23260 H 94.61996893213441 24.050241563643056 62.10082496992061 H 0.0 **** 0.06
23261 C 76.62063030869362 44.890420101430976 58.21289086536845 C 0.0 **** -0.24
23262 H 75.59962215714182 45.034779294750564 58.56813244443729 H 0.0 **** 0.06
23263 H 76.63325667064908 44.915323709835036 57.12339460519709 H 0.0 **** 0.06
23264 H 76.99191557137752 43.92644607224668 58.55909167241195 H 0.0 **** 0.06
23265 H 77.25609716370408 45.6858204810693 58.60231203243028 H 0.0 **** 0.06
23266 C 4.2494214264747825 101.2297742792724 44.40896787323146 C 0.0 **** -0.24
23267 H 4.13313589440051 100.15575041118453 44.55712381372393 H 0.0 **** 0.06
23268 H 4.070463574015406 101.47365896091497 43.3610708573641 H 0.0 **** 0.06
23269 H 5.261643867274358 101.52665393320943 44.685114533110664 H 0.0 **** 0.06
23270 H 3.5314082781414697 101.76138516181176 45.03366358717108 H 0.0 **** 0.06
23271 C 16.815983729115572 20.050058872930776 92.45429637283598 C 0.0 **** -0.24
23272 H 17.15666215363737 19.746702234663815 91.4644793802042 H 0.0 **** 0.06
23273 H 15.728486731476949 20.13293766462681 92.45473111620929 H 0.0 **** 0.06
23274 H 17.25380561152386 21.015798979804515 92.70893303811471 H 0.0 **** 0.06
23275 H 17.125034187273542 19.306782383806194 93.18880952833383 H 0.0 **** 0.06
23276 C 91.63608954695718 17.180666615394784 73.60858801165534 C 0.0 **** -0.24
23277 H 92.66105403960233 17.17821682336671 73.98018126526608 H 0.0 **** 0.06
23278 H 91.22457971404219 16.173156431189312 73.67164855844334 H 0.0 **** 0.06
23279 H 91.62789808599229 17.51368470731427 72.57043117661453 H 0.0 **** 0.06
23280 H 91.03309903348554 17.85849476594794 74.21231406059383 H 0.0 **** 0.06
23281 C 22.674003530106702 53.75668719059979 83.44956970867457 C 0.0 **** -0.24
23282 H 22.934922349628504 54.79302282413289 83.66310081674095 H 0.0 **** 0.06
23283 H 22.464828685709286 53.64788564971133 82.38482894238984 H 0.0 **** 0.06
23284 H 21.79071893434723 53.47867934972072 84.02421714392207 H 0.0 **** 0.06
23285 H 23.505733896713267 53.10774522682357 83.7248580774284 H 0.0 **** 0.06
23286 C 69.77031079027745 62.194359405796206 18.226224934850535 C 0.0 **** -0.24
23287 H 69.64000772580454 63.119972959599636 18.786865095636756 H 0.0 **** 0.06
23288 H 69.9711928176979 62.42817990214917 17.18063843575635 H 0.0 **** 0.06
23289 H 68.86253434097534 61.595670632288034 18.29761384308246 H 0.0 **** 0.06
23290 H 70.60949169506779 61.634779510541534 18.64062393440085 H 0.0 **** 0.06
23291 C 7.966117008741719 21.02916216542107 77.85482064799665 C 0.0 **** -0.24
23292 H 8.63244502842852 20.1837611180284 78.02454908086926 H 0.0 **** 0.06
23293 H 8.47289190688113 21.952338517370066 78.1382151119842 H 0.0 **** 0.06
23294 H 7.066027182032315 20.908850020646383 78.4564001893981 H 0.0 **** 0.06
23295 H 7.695337323586301 21.07163601966755 76.80002775550595 H 0.0 **** 0.06
23296 C 63.81602684736178 24.323431217006515 108.82109724241079 C 0.0 **** -0.24
23297 H 63.29094715589099 25.000930419486934 109.49459920298573 H 0.0 **** 0.06
23298 H 63.33675400139235 24.341852280565092 107.84251872591076 H 0.0 **** 0.06
23299 H 63.78093550163136 23.311339887730895 109.22423551812906 H 0.0 **** 0.06
23300 H 64.853752854374 24.64065841987218 108.72442612401713 H 0.0 **** 0.06
23301 C 62.36541785053524 99.00689714495745 81.19896751570496 C 0.0 **** -0.24
23302 H 61.76245439749695 99.51138736571994 80.44358056022338 H 0.0 **** 0.06
23303 H 62.35633309216111 99.5909421637099 82.11932050340545 H 0.0 **** 0.06
23304 H 63.38956392895156 98.90873311315329 80.8395536262193 H 0.0 **** 0.06
23305 H 61.95130926579499 98.01754975397307 81.39098445410286 H 0.0 **** 0.06
23306 C 28.53530563553791 35.89768165306333 64.09706478033601 C 0.0 **** -0.24
23307 H 29.603192935246526 36.11716566401759 64.0874604426305 H 0.0 **** 0.06
23308 H 28.233122601067763 35.523856303117924 63.11841990677037 H 0.0 **** 0.06
23309 H 27.98011236439163 36.80656951024412 64.32762712551445 H 0.0 **** 0.06
23310 H 28.326876303358915 35.14263074390976 64.85539392738157 H 0.0 **** 0.06
23311 C 5.862671014488015 68.46063297362056 102.23472602280778 C 0.0 **** -0.24
23312 H 6.49911062746223 67.62026437837523 102.50994579055225 H 0.0 **** 0.06
23313 H 4.880310067192852 68.09065877362266 101.93987380555699 H 0.0 **** 0.06
23314 H 6.313122853789238 68.999861055069 101.40202806075733 H 0.0 **** 0.06
23315 H 5.757545333061557 69.1319182733252 103.08784174686437 H 0.0 **** 0.06
23316 C 107.55561409876475 5.976076500802463 20.64333107743802 C 0.0 **** -0.24
23317 H 107.92233886039568 5.383064112617205 19.805290501714097 H 0.0 **** 0.06
23318 H 108.16186930129703 6.877531730151702 20.74354054086332 H 0.0 **** 0.06
23319 H 107.62251726004541 5.389732923556124 21.560302155993057 H 0.0 **** 0.06
23320 H 106.51754286793383 6.254372606871215 20.465440499781195 H 0.0 **** 0.06
23321 C 20.663639203735386 68.19057095007385 80.15524143025095 C 0.0 **** -0.24
23322 H 20.87414559955201 67.12092709377794 80.16208465049078 H 0.0 **** 0.06
23323 H 21.532222285972864 68.73365591292499 80.52762682397008 H 0.0 **** 0.06
23324 H 19.804405729978498 68.3949483266443 80.79460165271507 H 0.0 **** 0.06
23325 H 20.443354169944627 68.50972055426958 79.13744249380869 H 0.0 **** 0.06
23326 C 51.353513588711735 89.11751440576708 35.8424505018574 C 0.0 **** -0.24
23327 H 52.41679702559196 89.04763415680823 36.07035570125106 H 0.0 **** 0.06
23328 H 50.80040137470934 88.42673135540775 36.47804419056348 H 0.0 **** 0.06
23329 H 51.18934629844449 88.86069625301668 34.796533102622845 H 0.0 **** 0.06
23330 H 51.00962728203558 90.13571202376525 36.02492395068714 H 0.0 **** 0.06
23331 C 102.839461819094 70.94255800274306 108.69875704672523 C 0.0 **** -0.24
23332 H 103.12215832929625 70.40788635357472 107.79166241655614 H 0.0 **** 0.06
23333 H 102.79519378494653 70.24385722342022 109.53386618098166 H 0.0 **** 0.06
23334 H 101.86286156959834 71.40426904495139 108.55787933002007 H 0.0 **** 0.06
23335 H 103.58076571934436 71.71430288772015 108.90957489543925 H 0.0 **** 0.06
23336 C 47.89870611925966 76.66953617512726 67.56189887840561 C 0.0 **** -0.24
23337 H 47.1402980152958 76.63223094664323 68.34297450004027 H 0.0 **** 0.06
23338 H 48.52364717348007 77.55088445585397 67.70317370800198 H 0.0 **** 0.06
23339 H 47.41224692508075 76.72010838466969 66.58707289119091 H 0.0 **** 0.06
23340 H 48.51668294533806 75.7724032754189 67.61268269249628 H 0.0 **** 0.06
23341 C 65.63066092104441 74.19745259470429 47.73802194560841 C 0.0 **** -0.24
23342 H 66.3673473271036 73.45745234497207 48.05002591792987 H 0.0 **** 0.06
23343 H 65.73603572654437 75.09382737891872 48.35015688875228 H 0.0 **** 0.06
23344 H 64.62865541021068 73.78725820371778 47.86376075724712 H 0.0 **** 0.06
23345 H 65.79136426429147 74.44989408278326 46.69069851003604 H 0.0 **** 0.06
23346 C 17.10159616229464 97.5595479319229 89.05175679240986 C 0.0 **** -0.24
23347 H 16.716624628641114 96.73233223540865 89.64843079211406 H 0.0 **** 0.06
23348 H 16.97783612081608 98.49254758038865 89.60171028815424 H 0.0 **** 0.06
23349 H 16.55340720497054 97.61492089174806 88.1120231266907 H 0.0 **** 0.06
23350 H 18.160404553814175 97.3963535870655 88.84599667653055 H 0.0 **** 0.06
23351 C 100.99489200484167 3.584190890437725 22.64601778684019 C 0.0 **** -0.24
23352 H 100.8596425806331 3.8770968422593057 23.687710392214356 H 0.0 **** 0.06
23353 H 100.1608583638151 3.9567510924964324 22.05285472291021 H 0.0 **** 0.06
23354 H 101.03282298639242 2.4962829375527065 22.57745148336818 H 0.0 **** 0.06
23355 H 101.92751912207292 4.0043867299121985 22.26876206786615 H 0.0 **** 0.06
23356 C 13.660584234859158 3.030275851254231 0.32023662075271275 C 0.0 **** -0.24
23357 H 12.716721033012305 2.6128128020942825 0.6690281423250282 H 0.0 **** 0.06
23358 H 14.469130148369175 2.694174598069452 0.9701491034180698 H 0.0 **** 0.06
23359 H 13.605581030226915 4.119333508401468 0.34135225065647745 H 0.0 **** 0.06
23360 H 13.850838180729085 2.6957791464986087 -0.6996310804782553 H 0.0 **** 0.06
23361 C 107.37902244754338 87.35049630659006 14.00527631617674 C 0.0 **** -0.24
23362 H 107.25715633096797 86.44001913492227 14.592965652817547 H 0.0 **** 0.06
23363 H 107.12316125407392 88.21500867999875 14.618651557455884 H 0.0 **** 0.06
23364 H 106.72164550826932 87.31298102216752 13.136625698787427 H 0.0 **** 0.06
23365 H 108.41400889098605 87.43270562111968 13.674953186041865 H 0.0 **** 0.06
23366 C 78.31211253360004 10.072109130974443 63.82869730861785 C 0.0 **** -0.24
23367 H 77.45073361303724 9.863313016122959 63.19302731010703 H 0.0 **** 0.06
23368 H 78.40109774178 9.293286352442186 64.58618952175178 H 0.0 **** 0.06
23369 H 78.17981026045325 11.038928074309553 64.3140218959154 H 0.0 **** 0.06
23370 H 79.21578423621258 10.092611870163424 63.219345328274585 H 0.0 **** 0.06
23371 C 61.15253159144822 69.0291751731259 109.23437082610053 C 0.0 **** -0.24
23372 H 60.915355136483015 68.09416582979048 109.74197657044917 H 0.0 **** 0.06
23373 H 60.264584767069664 69.66089605457637 109.20415636843455 H 0.0 **** 0.06
23374 H 61.482644094973125 68.81668991238746 108.21771234781328 H 0.0 **** 0.06
23375 H 61.94679378706394 69.5439284654683 109.77426924688369 H 0.0 **** 0.06
23376 C 4.976671811667586 105.98716269197374 44.37788580077694 C 0.0 **** -0.24
23377 H 4.761449640955959 106.84882297926765 45.01000897801413 H 0.0 **** 0.06
23378 H 4.5343648675124655 106.13873657604675 43.39370359586246 H 0.0 **** 0.06
23379 H 4.55443450200454 105.09056374998869 44.83185907262222 H 0.0 **** 0.06
23380 H 6.055974986149181 105.86942503727504 44.27872301264358 H 0.0 **** 0.06
23381 C 100.91016497467395 49.763762551424506 91.0761526899024 C 0.0 **** -0.24
23382 H 100.4755416211159 50.58197622236798 91.64968091148039 H 0.0 **** 0.06
23383 H 101.93127247292067 49.58491215375856 91.41582582801776 H 0.0 **** 0.06
23384 H 100.9204722127746 50.02783631308501 90.01860952393827 H 0.0 **** 0.06
23385 H 100.31549703151441 48.86243683412442 91.22067832888852 H 0.0 **** 0.06
23386 C 88.7566853145355 101.15044185436948 89.76185264806337 C 0.0 **** -0.24
23387 H 88.30459228881875 100.97212292321672 90.73771893331822 H 0.0 **** 0.06
23388 H 89.17490383109364 102.15646340305922 89.73430941339473 H 0.0 **** 0.06
23389 H 87.99820396090502 101.04951711622138 88.98578438555317 H 0.0 **** 0.06
23390 H 89.55064454818506 100.42197152900191 89.59195696607804 H 0.0 **** 0.06
23391 C 92.8869400325396 17.238202814155898 81.03766552640016 C 0.0 **** -0.24
23392 H 92.10951964696005 17.135488890356946 80.28206840295016 H 0.0 **** 0.06
23393 H 93.858751817414 17.02852351330882 80.59002034223552 H 0.0 **** 0.06
23394 H 92.70124699898508 16.533739640382127 81.84875337094768 H 0.0 **** 0.06
23395 H 92.8793698126583 18.255459378693097 81.43107190992463 H 0.0 **** 0.06
23396 C 86.27856214599477 104.09833273655909 107.46762765953875 C 0.0 **** -0.24
23397 H 85.50361674815305 104.59061753463777 106.88064724593565 H 0.0 **** 0.06
23398 H 85.96303118873496 103.08203677636982 107.70470042084341 H 0.0 **** 0.06
23399 H 86.44277212937274 104.65285680085009 108.39071963640163 H 0.0 **** 0.06
23400 H 87.20399753276625 104.06661485041445 106.89275285307764 H 0.0 **** 0.06
23401 C 75.42439747280868 24.937450192027086 70.68468610348799 C 0.0 **** -0.24
23402 H 74.53999596241704 24.631655838405635 71.24468393596527 H 0.0 **** 0.06
23403 H 76.28567033654062 24.361262863525894 71.0247772911714 H 0.0 **** 0.06
23404 H 75.60884889743407 25.99897657607417 70.84783667304401 H 0.0 **** 0.06
23405 H 75.26083505355462 24.75580056407631 69.62219068854824 H 0.0 **** 0.06
23406 C 28.721379457813242 95.02854938658265 63.5943151498945 C 0.0 **** -0.24
23407 H 28.955602611415884 95.59613662164271 62.69364985008055 H 0.0 **** 0.06
23408 H 27.664682084066214 95.14701420174757 63.83377594782685 H 0.0 **** 0.06
23409 H 29.326692585149544 95.3967018340173 64.42229068938552 H 0.0 **** 0.06
23410 H 28.940198558851108 93.9738010689163 63.425824935106235 H 0.0 **** 0.06
23411 C 101.91521646775033 4.544467724285255 100.76354883235675 C 0.0 **** -0.24
23412 H 101.23531669797482 5.194793032772452 100.21363338212439 H 0.0 **** 0.06
23413 H 101.35172529970528 3.9687812359476595 101.49789242172892 H 0.0 **** 0.06
23414 H 102.66508952507989 5.149166489894014 101.27322962908983 H 0.0 **** 0.06
23415 H 102.40831044939465 3.8646190280229575 100.06869214913493 H 0.0 **** 0.06
23416 C 66.31946273988979 2.556128676871907 15.760509873756405 C 0.0 **** -0.24
23417 H 67.05952186587987 3.33466541658764 15.944248110925685 H 0.0 **** 0.06
23418 H 65.32672571562533 3.002590600299513 15.70573149334416 H 0.0 **** 0.06
23419 H 66.3472461222495 1.8298987974907135 16.57277089711127 H 0.0 **** 0.06
23420 H 66.54499887459993 2.0553731807184192 14.818488025117034 H 0.0 **** 0.06
23421 C 18.473813186914953 40.579646869347926 103.83914932540341 C 0.0 **** -0.24
23422 H 18.99202320159543 40.16715785195623 102.97319323734804 H 0.0 **** 0.06
23423 H 17.444695299742847 40.220329923729025 103.85181626100142 H 0.0 **** 0.06
23424 H 18.478695310295848 41.66871638341274 103.77902802263387 H 0.0 **** 0.06
23425 H 18.981333687640586 40.263678135324255 104.75030376224286 H 0.0 **** 0.06
23426 C 106.82474025930695 53.1953751552446 48.69107059265633 C 0.0 **** -0.24
23427 H 107.71261834559677 53.272471996603564 49.32011224974261 H 0.0 **** 0.06
23428 H 106.4628106050278 52.16700705298192 48.700166154161764 H 0.0 **** 0.06
23429 H 107.07648776680936 53.483383382538506 47.670399644274994 H 0.0 **** 0.06
23430 H 106.04987687196325 53.85762693578897 49.07583024232994 H 0.0 **** 0.06
23431 C 107.49684394713333 11.808261449959208 43.62104785863869 C 0.0 **** -0.24
23432 H 106.49142776167105 11.456420574586542 43.38992662938318 H 0.0 **** 0.06
23433 H 108.20002081276988 11.40337160823011 42.89198590304267 H 0.0 **** 0.06
23434 H 107.77717630381565 11.475872363861914 44.620152435550324 H 0.0 **** 0.06
23435 H 107.51839535441042 12.897018937777943 43.58080646349339 H 0.0 **** 0.06
23436 C 43.578791498159035 44.39443662330842 43.98485187925358 C 0.0 **** -0.24
23437 H 43.48939020895443 45.226928636898094 43.28796658216355 H 0.0 **** 0.06
23438 H 43.05530189117923 43.52658368880924 43.58198624650311 H 0.0 **** 0.06
23439 H 43.13642144433416 44.67310895939306 44.942149784891114 H 0.0 **** 0.06
23440 H 44.630953147021586 44.15099891781915 44.1279204405661 H 0.0 **** 0.06
23441 C 103.16754778494106 73.4156506018233 61.15572015946401 C 0.0 **** -0.24
23442 H 103.59131263771246 73.10462731002599 60.2006617263271 H 0.0 **** 0.06
23443 H 103.57477060879651 74.38799380961723 61.43362483808056 H 0.0 **** 0.06
23444 H 103.4212973668844 72.68286083843554 61.92045210446187 H 0.0 **** 0.06
23445 H 102.08358137139066 73.48773267337003 61.064974709510096 H 0.0 **** 0.06
23446 C 97.2964688537808 46.65999526458279 81.13029193980032 C 0.0 **** -0.24
23447 H 98.28677272014292 46.20991747477774 81.05468101642737 H 0.0 **** 0.06
23448 H 97.31634441630698 47.46163564750884 81.8682312081861 H 0.0 **** 0.06
23449 H 96.57605732855416 45.901598219739526 81.4356210284734 H 0.0 **** 0.06
23450 H 97.00843582464483 47.065741447691266 80.16002559161734 H 0.0 **** 0.06
23451 C 68.38655344976803 99.78207287277782 66.84585658490522 C 0.0 **** -0.24
23452 H 68.80250564868385 98.89239919982329 66.3729144520361 H 0.0 **** 0.06
23453 H 69.18421805672833 100.5003884524405 67.03436551963247 H 0.0 **** 0.06
23454 H 67.91598280573501 99.50518711287809 67.78940324024956 H 0.0 **** 0.06
23455 H 67.6422872699053 100.22966913957616 66.18704691784546 H 0.0 **** 0.06
23456 C 81.01899982702064 54.613703763362885 17.97012816986563 C 0.0 **** -0.24
23457 H 80.40866021812353 53.74929392710555 18.232315024203274 H 0.0 **** 0.06
23458 H 80.6632772029144 55.487845274987436 18.51546454467018 H 0.0 **** 0.06
23459 H 80.94366204059232 54.79908596259105 16.898227318227327 H 0.0 **** 0.06
23460 H 82.05782335748084 54.41808771821838 18.232478458553715 H 0.0 **** 0.06
23461 C 89.4567553594755 95.21313641009327 76.1942050961751 C 0.0 **** -0.24
23462 H 89.06755037140817 96.19974359392324 76.44987398627973 H 0.0 **** 0.06
23463 H 89.44329563882508 95.08783339557824 75.1112121344712 H 0.0 **** 0.06
23464 H 88.83475097259387 94.44761826637146 76.6569428106327 H 0.0 **** 0.06
23465 H 90.47911893827916 95.12074229322327 76.55836671547388 H 0.0 **** 0.06
23466 C 1.542425835462467 5.532548422499929 6.5097594519903055 C 0.0 **** -0.24
23467 H 2.610940780926825 5.626254304678042 6.315193875049829 H 0.0 **** 0.06
23468 H 1.0151405678895884 6.367214509452253 6.04773942585274 H 0.0 **** 0.06
23469 H 1.3673581169376234 5.542356837306244 7.585702682651458 H 0.0 **** 0.06
23470 H 1.1782244140611624 4.594757704073743 6.090470035751139 H 0.0 **** 0.06
23471 C 1.5119839662173433 72.08713818361814 22.013883360029837 C 0.0 **** -0.24
23472 H 1.5817222164377682 72.43142739808734 23.045797238311707 H 0.0 **** 0.06
23473 H 1.067447067009553 71.09190679433082 21.99201597229103 H 0.0 **** 0.06
23474 H 2.509166520829069 72.04900749020624 21.57529957235073 H 0.0 **** 0.06
23475 H 0.8896000605928407 72.77621105184795 21.442420657165968 H 0.0 **** 0.06
23476 C 63.975125790375515 62.41001630601119 13.650630385283591 C 0.0 **** -0.24
23477 H 63.406472593156195 63.33277821572227 13.536272514638085 H 0.0 **** 0.06
23478 H 65.0158382739067 62.649950521052176 13.870261599800187 H 0.0 **** 0.06
23479 H 63.92113331591028 61.83353831653352 12.72757154058985 H 0.0 **** 0.06
23480 H 63.557219760976 61.82445743626113 14.46965669976197 H 0.0 **** 0.06
23481 C 60.000980920139625 22.211203824345972 33.872785546545344 C 0.0 **** -0.24
23482 H 60.43181136067807 22.383352417703065 34.8596542197987 H 0.0 **** 0.06
23483 H 59.78315106289537 23.169492769302735 33.3995612193944 H 0.0 **** 0.06
23484 H 59.07988514754881 21.637905861079346 33.973048732501326 H 0.0 **** 0.06
23485 H 60.710817224649034 21.656476758440107 33.25926372157221 H 0.0 **** 0.06
23486 C 92.86470666579868 31.39494024926917 29.702520087971557 C 0.0 **** -0.24
23487 H 93.33149741645968 31.82483045779489 30.588428947221487 H 0.0 **** 0.06
23488 H 92.83225873463834 32.1433880179669 28.90977051822952 H 0.0 **** 0.06
23489 H 91.85022987629787 31.077136647970818 29.943633041096213 H 0.0 **** 0.06
23490 H 93.44431096416503 30.535363614613445 29.367352144398083 H 0.0 **** 0.06
23491 C 70.38469907649721 15.80923017406846 19.017072651850498 C 0.0 **** -0.24
23492 H 69.41535506697085 15.584310510435415 19.46200980704768 H 0.0 **** 0.06
23493 H 70.32051611401624 15.702704541524014 17.93416472804151 H 0.0 **** 0.06
23494 H 71.13218040232965 15.118182422130701 19.407387178754533 H 0.0 **** 0.06
23495 H 70.67051890616648 16.83129985726933 19.266059258023347 H 0.0 **** 0.06
23496 C 80.64237998503508 95.12104926362764 25.294403256653183 C 0.0 **** -0.24
23497 H 80.2114124710561 96.12167774516138 25.266937684860316 H 0.0 **** 0.06
23498 H 80.55269627435024 94.71478806417991 26.302214963021385 H 0.0 **** 0.06
23499 H 81.69485316417645 95.17167825553972 25.01561545512946 H 0.0 **** 0.06
23500 H 80.11071493328326 94.47737720059837 24.59395036363965 H 0.0 **** 0.06
23501 C 60.10230718798775 19.939338729643126 92.77474862764461 C 0.0 **** -0.24
23502 H 59.48495811163406 19.045221458523116 92.86026554961603 H 0.0 **** 0.06
23503 H 59.52176740507505 20.811999937087535 93.0749914290424 H 0.0 **** 0.06
23504 H 60.42969659708416 20.057522527362252 91.74201513065753 H 0.0 **** 0.06
23505 H 60.97356817102201 19.842602398359617 93.42237050932579 H 0.0 **** 0.06
23506 C 51.558287780203955 6.996716527945637 39.3259899520433 C 0.0 **** -0.24
23507 H 52.20413814965815 6.7524276218061345 38.48288264058931 H 0.0 **** 0.06
23508 H 50.51503125949307 6.884335843402027 39.02902496961993 H 0.0 **** 0.06
23509 H 51.73946664339525 8.026537856637333 39.6362012623015 H 0.0 **** 0.06
23510 H 51.77448031786196 6.324426287818767 40.1563575559212 H 0.0 **** 0.06
23511 C 22.00479936565003 0.750967152604801 69.13833207612242 C 0.0 **** -0.24
23512 H 22.24004645695112 -0.3029454171539214 68.98924202585471 H 0.0 **** 0.06
23513 H 22.652184138480266 1.162274863751179 69.91321250917366 H 0.0 **** 0.06
23514 H 20.963486365633315 0.8513027172731427 69.44396049016837 H 0.0 **** 0.06
23515 H 22.164280170501158 1.2933057477172838 68.20631680869798 H 0.0 **** 0.06
23516 C 64.31210484864712 87.07277768230504 108.65383636093873 C 0.0 **** -0.24
23517 H 63.767167679728374 87.96134987770517 108.33334498187949 H 0.0 **** 0.06
23518 H 64.94929324628082 87.32378365063867 109.50198770073743 H 0.0 **** 0.06
23519 H 64.9277594246517 86.70791177146617 107.8311407390089 H 0.0 **** 0.06
23520 H 63.60312175217369 86.29867645725734 108.9476611388647 H 0.0 **** 0.06
23521 C 5.267996783796363 38.85016573408018 39.83778266836083 C 0.0 **** -0.24
23522 H 5.828379240416169 39.69102265804082 39.43020344706446 H 0.0 **** 0.06
23523 H 4.334614773949298 38.734199994537335 39.28659511353919 H 0.0 **** 0.06
23524 H 5.049373698741974 39.03562123934563 40.88900618964931 H 0.0 **** 0.06
23525 H 5.86093131137072 37.93984746508647 39.74479843925434 H 0.0 **** 0.06
23526 C 18.595779863202125 105.27868923869298 35.145407713202985 C 0.0 **** -0.24
23527 H 19.285590813978217 105.63141445681487 35.91274111684848 H 0.0 **** 0.06
23528 H 18.68433612841477 104.1963750579932 35.048090886219654 H 0.0 **** 0.06
23529 H 18.839233854023632 105.75071868522258 34.193374570316735 H 0.0 **** 0.06
23530 H 17.575381522057086 105.53624217763692 35.428411984277886 H 0.0 **** 0.06
23531 C 19.452210831213563 108.42907643993857 22.760304598526034 C 0.0 **** -0.24
23532 H 20.49558551662119 108.7430957616715 22.788050922590486 H 0.0 **** 0.06
23533 H 18.973883459546045 108.67646120267304 23.707608879222846 H 0.0 **** 0.06
23534 H 19.40170770550131 107.352849814573 22.596382678309936 H 0.0 **** 0.06
23535 H 18.94061526677382 108.94467865125117 21.948340308956062 H 0.0 **** 0.06
23536 C 23.861967500255503 50.91349431127637 88.37107302534454 C 0.0 **** -0.24
23537 H 23.018115574338594 51.12900394799721 87.71421432632536 H 0.0 **** 0.06
23538 H 23.498232286119674 50.44511688648529 89.28542743952687 H 0.0 **** 0.06
23539 H 24.37583265768052 51.84227145983083 88.61630409137899 H 0.0 **** 0.06
23540 H 24.55221028705398 50.238252118718385 87.86543915984066 H 0.0 **** 0.06
23541 C 104.13604670921279 77.70048942745757 92.14864321684074 C 0.0 **** -0.24
23542 H 104.64280901285258 78.48355130657608 91.58455563747133 H 0.0 **** 0.06
23543 H 104.14547027587116 76.7738544511309 91.57284059545897 H 0.0 **** 0.06
23544 H 103.10496342144421 77.99905363573126 92.33919878157138 H 0.0 **** 0.06
23545 H 104.65040275031839 77.54453056190795 93.0971000923899 H 0.0 **** 0.06
23546 C 18.13482327228988 55.482112471743164 101.19511806654998 C 0.0 **** -0.24
23547 H 18.847762032938192 56.14920495787959 100.71176352677276 H 0.0 **** 0.06
23548 H 17.13015839249239 55.697144140309035 100.82899422174444 H 0.0 **** 0.06
23549 H 18.168888722737307 55.63548017355288 102.2742842651491 H 0.0 **** 0.06
23550 H 18.392014407564375 54.447825361189416 100.96600316272861 H 0.0 **** 0.06
23551 C 17.61356382592794 44.736089210887926 18.286653549553307 C 0.0 **** -0.24
23552 H 17.864640157018187 43.840622808919534 18.855169451757547 H 0.0 **** 0.06
23553 H 18.160221158116087 45.58779411117035 18.69059565023278 H 0.0 **** 0.06
23554 H 16.541836630548516 44.92273814966761 18.35863097674266 H 0.0 **** 0.06
23555 H 17.886845388081213 44.59036575110506 17.24101372051166 H 0.0 **** 0.06
23556 C 50.28844618859129 1.5971545227689887 82.7093580466503 C 0.0 **** -0.24
23557 H 50.37729837854428 0.9296519973134565 83.56699109358365 H 0.0 **** 0.06
23558 H 50.20084898088326 1.0055581101409103 81.79710685646164 H 0.0 **** 0.06
23559 H 51.1727789623721 2.2309589453174823 82.64985854879016 H 0.0 **** 0.06
23560 H 49.40072355761588 2.2202827428760656 82.82541221214622 H 0.0 **** 0.06
23561 C 51.29846576777774 95.27544861783315 59.28553246709484 C 0.0 **** -0.24
23562 H 51.22790281087387 95.9298342411505 58.416538756345375 H 0.0 **** 0.06
23563 H 51.39994404481848 95.87999968894471 60.187562932585195 H 0.0 **** 0.06
23564 H 52.169597798771065 94.6281019799882 59.182081641144435 H 0.0 **** 0.06
23565 H 50.398472681293356 94.6657896671355 59.3561728766349 H 0.0 **** 0.06
23566 C 86.2300533488393 6.478510414816668 33.782629536366414 C 0.0 **** -0.24
23567 H 86.62387198285865 5.597651775818662 33.27599885023511 H 0.0 **** 0.06
23568 H 85.28920086855305 6.224827009773662 34.27285617939367 H 0.0 **** 0.06
23569 H 86.05838113940553 7.270776081344934 33.05455711218303 H 0.0 **** 0.06
23570 H 86.94779222087482 6.819951015079823 34.52864426021779 H 0.0 **** 0.06
23571 C 61.7045681725121 99.86482401389591 45.011149180878704 C 0.0 **** -0.24
23572 H 61.10075931395903 100.44480196050397 44.31260983588693 H 0.0 **** 0.06
23573 H 62.47769165820375 100.50446754645525 45.4384968480728 H 0.0 **** 0.06
23574 H 62.171643078334625 99.0336031525622 44.48411827022828 H 0.0 **** 0.06
23575 H 61.0693221170018 99.47940290296789 45.80741838718218 H 0.0 **** 0.06
23576 C 60.484720250140725 13.23547186491275 15.904963042317803 C 0.0 **** -0.24
23577 H 61.34999409597593 12.573905652866276 15.95420819769896 H 0.0 **** 0.06
23578 H 60.573678763521926 14.007660784902686 16.670352147554894 H 0.0 **** 0.06
23579 H 59.57618008659553 12.658138547866901 16.074399496844535 H 0.0 **** 0.06
23580 H 60.440534597069004 13.703017593763146 14.921074138159383 H 0.0 **** 0.06
23581 C 84.05490394950516 47.42681382179512 37.032506650529115 C 0.0 **** -0.24
23582 H 83.17631505987637 47.97037383523639 37.38058972750213 H 0.0 **** 0.06
23583 H 84.95124239179808 48.01031912370837 37.24456496766277 H 0.0 **** 0.06
23584 H 83.9753790040889 47.2576661992386 35.958617177535984 H 0.0 **** 0.06
23585 H 84.11541736061386 46.46826728083607 37.54799029955507 H 0.0 **** 0.06
23586 C 84.45720728798733 79.8319295844467 98.68899445723648 C 0.0 **** -0.24
23587 H 85.52403675733063 79.98554132918207 98.52485099781505 H 0.0 **** 0.06
23588 H 83.89105296594629 80.5346869846764 98.07717333707657 H 0.0 **** 0.06
23589 H 84.22438699869804 79.9958333953823 99.74065929617697 H 0.0 **** 0.06
23590 H 84.19019209169845 78.81218927513243 98.41318786782135 H 0.0 **** 0.06
23591 C 19.658263715840803 84.0094675575806 107.20627658531919 C 0.0 **** -0.24
23592 H 19.332632137885383 84.09003081023921 106.16914960545111 H 0.0 **** 0.06
23593 H 20.027704248400084 83.00054201209153 107.39298954010141 H 0.0 **** 0.06
23594 H 18.817790410011497 84.21736904352342 107.86819146532918 H 0.0 **** 0.06
23595 H 20.455720650341505 84.72907531165491 107.39286670864647 H 0.0 **** 0.06
23596 C 88.74914050259116 20.37693605360039 30.26793382492872 C 0.0 **** -0.24
23597 H 89.3657368612492 20.56150652812937 31.148608844359956 H 0.0 **** 0.06
23598 H 87.9959062440571 21.160229263310015 30.182122171955086 H 0.0 **** 0.06
23599 H 88.25746826316866 19.408772257301308 30.366127692277587 H 0.0 **** 0.06
23600 H 89.37805122564849 20.37587779483698 29.378310951577504 H 0.0 **** 0.06
23601 C 82.05869181386802 39.58678121257594 70.42693449657988 C 0.0 **** -0.24
23602 H 81.70158287053943 39.27540823264451 71.40848673299321 H 0.0 **** 0.06
23603 H 81.76793078446545 40.62194214401802 70.24568978858613 H 0.0 **** 0.06
23604 H 81.61893133019231 38.94704214140353 69.66098774170888 H 0.0 **** 0.06
23605 H 83.14508562727409 39.502208564649095 70.39109163574922 H 0.0 **** 0.06
23606 C 104.45602944811662 31.017983860486567 54.32168282135177 C 0.0 **** -0.24
23607 H 105.44198348580238 31.13426173248331 53.871504153375284 H 0.0 **** 0.06
23608 H 104.56119884231634 30.915748577360688 55.402501102350286 H 0.0 **** 0.06
23609 H 103.97523034090904 30.126602811578408 53.91753702567059 H 0.0 **** 0.06
23610 H 103.84799005728149 31.893404240874247 54.095506021818714 H 0.0 **** 0.06
23611 C 108.19287727439138 41.805557389157684 80.88102299877983 C 0.0 **** -0.24
23612 H 107.8279580411728 41.19428338265713 81.70577491326895 H 0.0 **** 0.06
23613 H 107.68187365737874 42.76868744355035 80.88834204678307 H 0.0 **** 0.06
23614 H 107.9949962239796 41.29729351131488 79.93655715892524 H 0.0 **** 0.06
23615 H 109.26594650241722 41.962116165314285 80.99221888825912 H 0.0 **** 0.06
23616 C 9.807711051958421 56.361431074732536 36.638231131330265 C 0.0 **** -0.24
23617 H 9.450476882190713 56.745330451805216 35.68335957909946 H 0.0 **** 0.06
23618 H 10.12867581791943 57.191721204690225 37.266764040787635 H 0.0 **** 0.06
23619 H 10.64766070823839 55.68805342916502 36.468252190757006 H 0.0 **** 0.06
23620 H 9.002491060350906 55.81899787178989 37.13452213289243 H 0.0 **** 0.06
23621 C 104.92666498165566 20.199039836492233 91.41382526263433 C 0.0 **** -0.24
23622 H 104.01160033090551 20.527510382424566 90.9192258229001 H 0.0 **** 0.06
23623 H 105.14774191040075 19.172422110710187 91.12112270347404 H 0.0 **** 0.06
23624 H 104.79356543063632 20.249265134478875 92.49388942465748 H 0.0 **** 0.06
23625 H 105.7510987562142 20.847423801603526 91.1172229782747 H 0.0 **** 0.06
23626 C 39.22642837830375 58.84170587156552 58.59629036716137 C 0.0 **** -0.24
23627 H 38.6837137452402 58.91473332001101 57.653167038256925 H 0.0 **** 0.06
23628 H 38.96667488579348 57.90758939097236 59.09353901254417 H 0.0 **** 0.06
23629 H 38.95625964983694 59.68163622502772 59.23661107625327 H 0.0 **** 0.06
23630 H 40.29851359469842 58.864693528320345 58.4006821081731 H 0.0 **** 0.06
23631 C 108.7474353494388 31.28344629421227 86.2050846623971 C 0.0 **** -0.24
23632 H 109.38889802702597 31.306433888079106 87.08613286932268 H 0.0 **** 0.06
23633 H 108.68205766958079 32.284802546124475 85.77738238419238 H 0.0 **** 0.06
23634 H 107.75218617625205 30.942696975260098 86.48866650906166 H 0.0 **** 0.06
23635 H 109.1693177634861 30.60089171488992 85.46742877942683 H 0.0 **** 0.06
23636 C 67.14935201981405 76.42315411845561 67.90975350657322 C 0.0 **** -0.24
23637 H 66.0948705477199 76.68098066064834 68.00649550341586 H 0.0 **** 0.06
23638 H 67.64808696774948 76.57279756518204 68.8673713976558 H 0.0 **** 0.06
23639 H 67.61075491557297 77.06136095706577 67.15583364642964 H 0.0 **** 0.06
23640 H 67.2425749867346 75.37960660758995 67.60977220535551 H 0.0 **** 0.06
23641 C 102.73808308549368 81.8638869617083 46.519102698061076 C 0.0 **** -0.24
23642 H 103.08057913798245 82.03846572260913 45.4991343442523 H 0.0 **** 0.06
23643 H 101.75667587535008 81.39124666820726 46.49756858951994 H 0.0 **** 0.06
23644 H 102.67216381309666 82.81489587402343 47.04754041940901 H 0.0 **** 0.06
23645 H 103.44473086522837 81.21237255716075 47.03297001240113 H 0.0 **** 0.06
23646 C 73.10778918377696 55.00997537273997 13.602524309212072 C 0.0 **** -0.24
23647 H 73.08219646556947 54.18044822375293 14.309000382693 H 0.0 **** 0.06
23648 H 74.02300695608307 55.58425713515743 13.75065155807215 H 0.0 **** 0.06
23649 H 72.24419461954025 55.653348831838684 13.766089803411546 H 0.0 **** 0.06
23650 H 73.08382005731181 54.62052600492848 12.584282957248377 H 0.0 **** 0.06
23651 C 27.02672666834718 67.52078425890431 106.7553574042648 C 0.0 **** -0.24
23652 H 27.38485853606187 68.50180385608617 106.44391587766205 H 0.0 **** 0.06
23653 H 27.275788511602286 66.78464197923887 105.98977489910348 H 0.0 **** 0.06
23654 H 25.9458180888808 67.55410991451105 106.88945715381732 H 0.0 **** 0.06
23655 H 27.501320195443725 67.24279401154483 107.69560155419742 H 0.0 **** 0.06
23656 C 101.94443713162849 100.94015270151297 42.90578854101116 C 0.0 **** -0.24
23657 H 101.30100650526549 101.81897855385694 42.952946840193135 H 0.0 **** 0.06
23658 H 102.81092278702567 101.15875386785322 42.281682083459884 H 0.0 **** 0.06
23659 H 101.38845392961889 100.10577477779091 42.47963618409901 H 0.0 **** 0.06
23660 H 102.27615409755288 100.68027180866409 43.911233481076465 H 0.0 **** 0.06
23661 C 82.1551029966285 7.749716787426394 85.06411363534797 C 0.0 **** -0.24
23662 H 83.10617389987854 8.168134963605496 85.39091022851987 H 0.0 **** 0.06
23663 H 81.51022071096304 7.59438979049321 85.92965979073226 H 0.0 **** 0.06
23664 H 82.3296538899688 6.7969525036151595 84.56453288897976 H 0.0 **** 0.06
23665 H 81.67352516172645 8.440286101729384 84.3706486953459 H 0.0 **** 0.06
23666 C 58.70719209119875 32.991584690400884 44.167181081936064 C 0.0 **** -0.24
23667 H 58.45706245137336 32.043206341379914 44.64084268439626 H 0.0 **** 0.06
23668 H 57.80192473544662 33.447914331421885 43.76527180839798 H 0.0 **** 0.06
23669 H 59.41628669268255 32.818164193443096 43.35776653665698 H 0.0 **** 0.06
23670 H 59.15414139690324 33.65914451565462 44.90438388177785 H 0.0 **** 0.06
23671 C 80.310334663508 70.31241660212505 79.21408401714046 C 0.0 **** -0.24
23672 H 81.26658107826464 70.24363426079853 79.73412977488155 H 0.0 **** 0.06
23673 H 79.53118815821767 69.85561265413902 79.82467277487393 H 0.0 **** 0.06
23674 H 80.3785752958346 69.78982917655432 78.25956509713885 H 0.0 **** 0.06
23675 H 80.06740448551477 71.36024286974549 79.03823248305977 H 0.0 **** 0.06
23676 C 84.11691995470801 65.21391804581936 104.69852428989577 C 0.0 **** -0.24
23677 H 83.07050746683163 64.96225963436382 104.52785898140915 H 0.0 **** 0.06
23678 H 84.23645357747489 66.29744500605 104.68442492316792 H 0.0 **** 0.06
23679 H 84.7301880465211 64.77030955945531 103.91397314084973 H 0.0 **** 0.06
23680 H 84.42972680317177 64.82594542260426 105.66836081930235 H 0.0 **** 0.06
23681 C 68.75549281115076 106.61407462373364 28.61587440946306 C 0.0 **** -0.24
23682 H 67.7614787767377 106.1934752748412 28.771573075331247 H 0.0 **** 0.06
23683 H 68.80978560808654 107.05709501692297 27.62146656901095 H 0.0 **** 0.06
23684 H 69.50116067007463 105.82402288481387 28.70434147718788 H 0.0 **** 0.06
23685 H 68.94681053517104 107.38060439399032 29.367258734598806 H 0.0 **** 0.06
23686 C 61.45671926940145 57.23893492645515 84.8804020957541 C 0.0 **** -0.24
23687 H 61.464268439766045 58.2716213026818 84.53126228857184 H 0.0 **** 0.06
23688 H 61.769298796386295 57.20698071208569 85.92397800719931 H 0.0 **** 0.06
23689 H 62.14419466932537 56.647044957833614 84.27578189066193 H 0.0 **** 0.06
23690 H 60.44978354392009 56.83236115187065 84.7887401173684 H 0.0 **** 0.06
23691 C 16.153729767287572 99.46192343249902 58.76595965197447 C 0.0 **** -0.24
23692 H 15.915945711913395 98.39799094040114 58.77904228625704 H 0.0 **** 0.06
23693 H 16.34375014585524 99.7789914366679 57.74100266668182 H 0.0 **** 0.06
23694 H 17.040506656676328 99.64265183176869 59.373585962406196 H 0.0 **** 0.06
23695 H 15.31460804974482 100.02670032970138 59.17198000083397 H 0.0 **** 0.06
23696 C 91.218598502784 109.45327045660542 101.82019931052805 C 0.0 **** -0.24
23697 H 90.55626766170153 109.66880393725171 102.65957109159652 H 0.0 **** 0.06
23698 H 90.91440346616315 108.51883298200875 101.34934829091962 H 0.0 **** 0.06
23699 H 92.24304082802888 109.36258385271316 102.18125968263635 H 0.0 **** 0.06
23700 H 91.16013767601152 110.26371769646732 101.0936132259541 H 0.0 **** 0.06
23701 C 106.42488508442399 101.90793616296563 38.01213790432207 C 0.0 **** -0.24
23702 H 106.64638003292356 102.2805264552451 39.0121389957084 H 0.0 **** 0.06
23703 H 106.89348864271682 100.932685504939 37.87589676005117 H 0.0 **** 0.06
23704 H 106.81520530127904 102.60529754804388 37.27037379247341 H 0.0 **** 0.06
23705 H 105.34580573527535 101.81279030719087 37.89023315717206 H 0.0 **** 0.06
23706 C 59.25428857161229 87.5884876582325 12.365606164144594 C 0.0 **** -0.24
23707 H 58.78406855965095 87.19953983947632 13.269244647729607 H 0.0 **** 0.06
23708 H 59.262542140868476 86.81292559900302 11.599130365253444 H 0.0 **** 0.06
23709 H 60.27670963610859 87.88989118900834 12.589572059245938 H 0.0 **** 0.06
23710 H 58.69105337434574 88.44983224981871 12.00555703813663 H 0.0 **** 0.06
23711 C 71.49783091639222 60.50405006967182 93.75034057610627 C 0.0 **** -0.24
23712 H 71.06267342201136 60.59197264455426 92.75424401053726 H 0.0 **** 0.06
23713 H 72.04132015041023 59.562739744864814 93.827431566602 H 0.0 **** 0.06
23714 H 70.70213881574807 60.52601606808693 94.49607001030522 H 0.0 **** 0.06
23715 H 72.18085698870141 61.33501404266855 93.92368976210926 H 0.0 **** 0.06
23716 C 105.1358169980258 7.851829655939486 0.06244760550619333 C 0.0 **** -0.24
23717 H 104.60568736642665 8.071913831394598 0.9889341130116378 H 0.0 **** 0.06
23718 H 104.44498487065314 7.926587368391635 -0.7777583348751875 H 0.0 **** 0.06
23719 H 105.54403868774975 6.841877650894098 0.10866194935435658 H 0.0 **** 0.06
23720 H 105.94812164230439 8.566141140716065 -0.06963180369113786 H 0.0 **** 0.06
23721 C 13.858171938277366 95.2979857755285 7.170647930195024 C 0.0 **** -0.24
23722 H 14.80019275982815 94.77164922866717 7.324177530176646 H 0.0 **** 0.06
23723 H 13.244395830278393 95.21249009796435 8.06847152727381 H 0.0 **** 0.06
23724 H 13.32976975301861 94.85803799510853 6.325412597989848 H 0.0 **** 0.06
23725 H 14.058773994695656 96.35016386540713 6.966905812465292 H 0.0 **** 0.06
23726 C 68.21798068839894 33.80033186621256 52.588223146821974 C 0.0 **** -0.24
23727 H 67.9557955944158 34.75671281138062 53.040576097830865 H 0.0 **** 0.06
23728 H 68.45238695601097 33.07989915043498 53.37123788755338 H 0.0 **** 0.06
23729 H 69.08622913892054 33.93083096898053 51.942614655803425 H 0.0 **** 0.06
23730 H 67.37752994673423 33.4360757281064 51.998018341494515 H 0.0 **** 0.06
23731 C 8.432152716891645 110.47915418018476 91.26549118725978 C 0.0 **** -0.24
23732 H 8.490144495193784 110.18129322408433 92.31255687419983 H 0.0 **** 0.06
23733 H 7.556676342870334 110.0202770347262 90.8048886797205 H 0.0 **** 0.06
23734 H 9.331664789457795 110.15142013965864 90.74380719182221 H 0.0 **** 0.06
23735 H 8.349581213041748 111.56445106594893 91.20055746281304 H 0.0 **** 0.06
23736 C 54.129104405425664 27.783994664543513 101.24300931681438 C 0.0 **** -0.24
23737 H 55.20193983839226 27.682499849108893 101.07786183566078 H 0.0 **** 0.06
23738 H 53.70896759551687 26.811285569246905 101.5017908583913 H 0.0 **** 0.06
23739 H 53.655365868170776 28.15444661746443 100.33466036777547 H 0.0 **** 0.06
23740 H 53.95219600742442 28.48556812884013 102.05793679817096 H 0.0 **** 0.06
23741 C 78.20018801175428 61.79425905241982 105.6026118006375 C 0.0 **** -0.24
23742 H 78.35977692831682 61.50328994575602 104.56442054564818 H 0.0 **** 0.06
23743 H 77.73239432166469 62.77896038711225 105.63633348919157 H 0.0 **** 0.06
23744 H 79.15829254518155 61.82945090355733 106.1212359150058 H 0.0 **** 0.06
23745 H 77.55020670850013 61.066278169038355 106.08813509952546 H 0.0 **** 0.06
23746 C 3.2486380541687083 51.15644325157749 99.44846066524099 C 0.0 **** -0.24
23747 H 2.9362171938089716 50.727748799223626 100.4005431151669 H 0.0 **** 0.06
23748 H 2.6212173466024353 50.760370479646106 98.64874168566412 H 0.0 **** 0.06
23749 H 4.289447210086649 50.89700841610564 99.25639669797222 H 0.0 **** 0.06
23750 H 3.1452821102252813 52.24114217174401 99.48793938018044 H 0.0 **** 0.06
23751 C 9.911170822774704 70.13091258603292 38.026692698616756 C 0.0 **** -0.24
23752 H 10.68017789438533 70.0182889683549 37.261882381613304 H 0.0 **** 0.06
23753 H 9.57515889069635 71.16733461185856 38.05474774383757 H 0.0 **** 0.06
23754 H 10.322659015915082 69.85459037702061 38.997619188719085 H 0.0 **** 0.06
23755 H 9.067730221759433 69.48077719417746 37.791603952496786 H 0.0 **** 0.06
23756 C 54.5898233340842 31.109964811468643 44.56092073053324 C 0.0 **** -0.24
23757 H 54.17029551665843 30.105970507498967 44.489397090159756 H 0.0 **** 0.06
23758 H 54.68953027182573 31.533491922664325 43.56121273510672 H 0.0 **** 0.06
23759 H 55.570236577667515 31.060514159488605 45.03460230390415 H 0.0 **** 0.06
23760 H 53.92848225265266 31.738029734480477 45.15839139406891 H 0.0 **** 0.06
23761 C 15.07165822621812 54.395932394264605 97.89135365859569 C 0.0 **** -0.24
23762 H 15.82166680752323 55.17710160865079 98.01006530211221 H 0.0 **** 0.06
23763 H 14.928635989244924 54.18855909839252 96.83079781637278 H 0.0 **** 0.06
23764 H 14.128886026420446 54.727439333225334 98.32772450139082 H 0.0 **** 0.06
23765 H 15.40744408168382 53.49062953678964 98.39682701450708 H 0.0 **** 0.06
23766 C 74.99834668148077 93.44196507939597 61.61678146664126 C 0.0 **** -0.24
23767 H 75.98335889314751 92.99146721098668 61.49753252207171 H 0.0 **** 0.06
23768 H 74.2311295484818 92.67763727584853 61.48398941302378 H 0.0 **** 0.06
23769 H 74.86405732083036 94.22568123128335 60.87066007245356 H 0.0 **** 0.06
23770 H 74.91385693491367 93.87138684254737 62.615372071005424 H 0.0 **** 0.06
23771 C 93.01966454096387 70.43875093086359 14.0514893696635 C 0.0 **** -0.24
23772 H 92.5704957911098 71.3860251637481 13.75138980976611 H 0.0 **** 0.06
23773 H 94.01895725498787 70.35857258255291 13.623981218144039 H 0.0 **** 0.06
23774 H 92.40324798452917 69.61558266220831 13.689918667608694 H 0.0 **** 0.06
23775 H 93.08331633839055 70.3957894378639 15.13819927892962 H 0.0 **** 0.06
23776 C 45.34048801749128 76.04367784055796 76.64737985927252 C 0.0 **** -0.24
23777 H 45.37536793139907 75.23268279079241 75.91993834783943 H 0.0 **** 0.06
23778 H 44.42755697117718 76.62179912214603 76.5031008261393 H 0.0 **** 0.06
23779 H 46.20700666387182 76.69088808597229 76.51103442769192 H 0.0 **** 0.06
23780 H 45.352843877976284 75.62820527814745 77.65562322068405 H 0.0 **** 0.06
23781 C 100.83569775979062 94.05954607997296 3.5728428614164613 C 0.0 **** -0.24
23782 H 100.17224268550034 94.79916974673989 3.1230862629777647 H 0.0 **** 0.06
23783 H 101.83190905160396 94.15555985513899 3.1412572502832745 H 0.0 **** 0.06
23784 H 100.44896884606435 93.05928151672481 3.376360515371317 H 0.0 **** 0.06
23785 H 100.88735284051297 94.2252741359647 4.648565714301682 H 0.0 **** 0.06
23786 C 8.976811047795977 13.316443682306694 87.8355783536127 C 0.0 **** -0.24
23787 H 9.86725845793272 13.690271168001718 87.33055149091058 H 0.0 **** 0.06
23788 H 9.240601770492873 12.994466252433778 88.84364273089187 H 0.0 **** 0.06
23789 H 8.571947258860135 12.472601546718344 87.27802886593508 H 0.0 **** 0.06
23790 H 8.230528239491491 14.10839765141218 87.88942590363496 H 0.0 **** 0.06
23791 C 55.569462833552855 41.32934068849747 1.1009058216578183 C 0.0 **** -0.24
23792 H 55.31219615424078 42.20317277849907 0.5012516472450415 H 0.0 **** 0.06
23793 H 55.55456078183923 40.439895638505135 0.471361429680087 H 0.0 **** 0.06
23794 H 54.8440038544751 41.21726923841095 1.9073083535746207 H 0.0 **** 0.06
23795 H 56.56450294909591 41.46022513787577 1.5239567239016338 H 0.0 **** 0.06
23796 C 94.50089691465624 22.92346691892791 53.57990927257708 C 0.0 **** -0.24
23797 H 93.65942543995858 23.61736443104786 53.57901180679289 H 0.0 **** 0.06
23798 H 95.32019366917356 23.34667425215765 52.99775622500124 H 0.0 **** 0.06
23799 H 94.19087761278682 21.976896898194923 53.1383360517151 H 0.0 **** 0.06
23800 H 94.83088824488863 22.755955281900157 54.60462886837939 H 0.0 **** 0.06
23801 C 35.052921199606686 42.74227882514225 102.00203004846895 C 0.0 **** -0.24
23802 H 34.24016684194382 42.56718425560848 101.2983540638077 H 0.0 **** 0.06
23803 H 35.795927349817475 43.395378995250866 101.54315989963447 H 0.0 **** 0.06
23804 H 35.51741489898379 41.791950862351484 102.26574791733887 H 0.0 **** 0.06
23805 H 34.65957305444795 43.215201644701665 102.90168718209867 H 0.0 **** 0.06
23806 C 104.17595284654641 30.893487437800104 86.33866009802972 C 0.0 **** -0.24
23807 H 105.11548102446145 31.406780371212847 86.13275253808968 H 0.0 **** 0.06
23808 H 104.2241438267369 30.4303096307529 87.3252085167079 H 0.0 **** 0.06
23809 H 104.00925406482327 30.124775333783248 85.58447317223494 H 0.0 **** 0.06
23810 H 103.35635904603599 31.611502783546143 86.31382691707103 H 0.0 **** 0.06
23811 C 37.63246820391409 86.78399186190393 66.72439918393323 C 0.0 **** -0.24
23812 H 37.087010897454554 85.85055935723852 66.85973494875924 H 0.0 **** 0.06
23813 H 37.83188563990322 87.23209693897951 67.69785707315651 H 0.0 **** 0.06
23814 H 37.03607812019168 87.46997711407698 66.12301841916587 H 0.0 **** 0.06
23815 H 38.57582631624043 86.58307064745907 66.21672323850271 H 0.0 **** 0.06
23816 C 87.79441176499839 50.948112760583726 72.56968998017533 C 0.0 **** -0.24
23817 H 88.21404137875135 50.40016406706705 71.72635320241255 H 0.0 **** 0.06
23818 H 87.65903554829072 51.99349975729319 72.29292108432375 H 0.0 **** 0.06
23819 H 88.4746709094758 50.88186814103543 73.41911620230209 H 0.0 **** 0.06
23820 H 86.83130632029258 50.51559932416054 72.84150017590372 H 0.0 **** 0.06
23821 C 4.9450094854687165 65.04748951001028 4.239380991920882 C 0.0 **** -0.24
23822 H 5.330061582816825 64.14122438803793 3.771875756836039 H 0.0 **** 0.06
23823 H 5.304070665716878 65.10662922206933 5.266376730386469 H 0.0 **** 0.06
23824 H 3.854464254431548 65.02165283520992 4.236157513833973 H 0.0 **** 0.06
23825 H 5.288630329253067 65.91788038125787 3.681536824107411 H 0.0 **** 0.06
23826 C 35.22000768083481 75.06194128147882 9.705035076077742 C 0.0 **** -0.24
23827 H 34.822752049291125 75.97519463338199 9.260596020704998 H 0.0 **** 0.06
23828 H 35.675796053340065 74.44831056174365 8.927277346522207 H 0.0 **** 0.06
23829 H 34.41134148638503 74.50662986073911 10.17872682500751 H 0.0 **** 0.06
23830 H 35.97185964985752 75.31933389237781 10.451504382081321 H 0.0 **** 0.06
23831 C 49.35186599954892 63.85509619097712 61.98462093892918 C 0.0 **** -0.24
23832 H 49.47786296468544 64.57208055858085 62.796582126113364 H 0.0 **** 0.06
23833 H 50.02707790541922 63.01270564579272 62.13705721048092 H 0.0 **** 0.06
23834 H 49.58062162385076 64.33821147009853 61.03542593644791 H 0.0 **** 0.06
23835 H 48.32167681000294 63.498869658505214 61.97284663164143 H 0.0 **** 0.06
23836 C 88.50824366815624 73.99526421732855 85.85926600059383 C 0.0 **** -0.24
23837 H 88.99878703333444 74.56795837609957 85.07159006053655 H 0.0 **** 0.06
23838 H 89.1080193244189 73.11492667489553 86.09311802890585 H 0.0 **** 0.06
23839 H 87.5211010278618 73.68349228419568 85.52021242642923 H 0.0 **** 0.06
23840 H 88.40890132105665 74.61508714587343 86.74947231790333 H 0.0 **** 0.06
23841 C 61.8743590508717 75.27287376574068 48.936387178964196 C 0.0 **** -0.24
23842 H 62.73873911413753 75.42455740479429 49.58209830744164 H 0.0 **** 0.06
23843 H 60.986183052035614 75.11302543493122 49.54810661094609 H 0.0 **** 0.06
23844 H 62.04176657287081 74.40046141430719 48.304858767015446 H 0.0 **** 0.06
23845 H 61.729538728704995 76.1525459398548 48.30963631335982 H 0.0 **** 0.06
23846 C 23.298043308602843 102.31402519198019 99.03553562179879 C 0.0 **** -0.24
23847 H 23.013723697156887 101.31852540680941 99.37728449973308 H 0.0 **** 0.06
23848 H 23.183303636341197 103.02464314569411 99.85335076353208 H 0.0 **** 0.06
23849 H 22.65789097548835 102.60837533942794 98.20428134144186 H 0.0 **** 0.06
23850 H 24.337162485202835 102.30091738552781 98.70636201451697 H 0.0 **** 0.06
23851 C 80.06751051055761 74.18292483992383 31.23174241491904 C 0.0 **** -0.24
23852 H 81.11407480166525 74.10339886125004 31.52651106242419 H 0.0 **** 0.06
23853 H 79.5968699112558 73.20236792757103 31.296474582855694 H 0.0 **** 0.06
23854 H 80.00596475834175 74.54932697550106 30.20693934353565 H 0.0 **** 0.06
23855 H 79.55475618555516 74.87771138190652 31.89742058697496 H 0.0 **** 0.06
23856 C 78.89399854350364 89.23378361071246 43.20498185979784 C 0.0 **** -0.24
23857 H 79.57068691330335 89.92604647567791 42.70385740848104 H 0.0 **** 0.06
23858 H 79.4250491548645 88.31069537687327 43.43484276163781 H 0.0 **** 0.06
23859 H 78.04913105203565 89.01553776418018 42.55195322882844 H 0.0 **** 0.06
23860 H 78.53245288086953 89.68620267563946 44.129087654076045 H 0.0 **** 0.06
23861 C 22.6464279875169 94.59443818413502 30.018105631470064 C 0.0 **** -0.24
23862 H 23.083936369725762 93.98721876065912 30.811069539962915 H 0.0 **** 0.06
23863 H 21.56804217305873 94.66091689244246 30.16500147582019 H 0.0 **** 0.06
23864 H 22.854577625424184 94.13389537536207 29.052461923463113 H 0.0 **** 0.06
23865 H 23.080213519569327 95.5939946219323 30.045267507550108 H 0.0 **** 0.06
23866 C 68.74860025351155 69.30641297935449 63.3206622339099 C 0.0 **** -0.24
23867 H 67.8227587738179 69.88034878974105 63.33709114389842 H 0.0 **** 0.06
23868 H 69.4458848114463 69.76211470133461 62.616753162549486 H 0.0 **** 0.06
23869 H 68.53620704122876 68.28275806439336 63.010834033064725 H 0.0 **** 0.06
23870 H 69.18936541716302 69.299638889373 64.31681324671092 H 0.0 **** 0.06
23871 C 105.1445633620049 39.91856341441786 90.59630232292511 C 0.0 **** -0.24
23872 H 106.0983656713362 40.05614700833388 90.08846321054006 H 0.0 **** 0.06
23873 H 105.28885067543338 39.29599418584519 91.4792102741389 H 0.0 **** 0.06
23874 H 104.4404273530756 39.43396522976661 89.92104626979193 H 0.0 **** 0.06
23875 H 104.75044491489463 40.889871331422 90.8965111695241 H 0.0 **** 0.06
23876 C 13.909130780085206 68.41622444773435 78.41087706276517 C 0.0 **** -0.24
23877 H 13.964246637433405 68.61302042568019 79.48138269064833 H 0.0 **** 0.06
23878 H 13.743731714076432 69.35319258608178 77.87732792642473 H 0.0 **** 0.06
23879 H 13.085610807225407 67.73238225410336 78.20966983089242 H 0.0 **** 0.06
23880 H 14.845489927369101 67.9674972918971 78.0753277367603 H 0.0 **** 0.06
23881 C 81.0919400394736 11.037478218879428 108.90366202892096 C 0.0 **** -0.24
23882 H 82.13711609297971 11.27415910233045 108.7072444826764 H 0.0 **** 0.06
23883 H 80.67280408621161 11.779996260775413 109.58201716837934 H 0.0 **** 0.06
23884 H 81.02323971934754 10.049449128788094 109.35899984036962 H 0.0 **** 0.06
23885 H 80.53588490994196 11.044558754723838 107.96692395373853 H 0.0 **** 0.06
23886 C 70.00547594063625 22.261136537499027 23.538619516853657 C 0.0 **** -0.24
23887 H 69.28585920466361 21.52181968333562 23.186899349155567 H 0.0 **** 0.06
23888 H 71.01614404689147 21.86513723210112 23.430289667112334 H 0.0 **** 0.06
23889 H 69.81315589576877 22.485069721334696 24.587700848926886 H 0.0 **** 0.06
23890 H 69.90762803231308 23.172321232556698 22.94850175867637 H 0.0 **** 0.06
23891 C 21.944137381212443 49.795563584996415 50.039025081739936 C 0.0 **** -0.24
23892 H 22.429055629770048 50.697715075772024 49.66702686042825 H 0.0 **** 0.06
23893 H 22.670731579744512 49.19143503160649 50.583724420000294 H 0.0 **** 0.06
23894 H 21.55141091841898 49.22190447696047 49.19915073673218 H 0.0 **** 0.06
23895 H 21.12706842624938 50.07101530169462 50.70606437757331 H 0.0 **** 0.06
23896 C 62.49665539130852 32.58066793956486 2.8004149900851782 C 0.0 **** -0.24
23897 H 61.51889905935366 32.182068807574716 3.0688995562715515 H 0.0 **** 0.06
23898 H 62.550105951107184 33.63219426366637 3.0840224726589174 H 0.0 **** 0.06
23899 H 62.644599213801186 32.48611561924439 1.724828547094619 H 0.0 **** 0.06
23900 H 63.27205017642605 32.02216752282176 3.324130475889005 H 0.0 **** 0.06
23901 C 105.80913353306046 91.81919002453805 29.21230395309476 C 0.0 **** -0.24
23902 H 105.37643282168443 91.49027917044742 28.266889476560124 H 0.0 **** 0.06
23903 H 106.27453931306623 90.97056121096347 29.712898890743276 H 0.0 **** 0.06
23904 H 105.02386371450979 92.23023363039542 29.846638401213056 H 0.0 **** 0.06
23905 H 106.55981324786552 92.58514036323572 29.02132305253778 H 0.0 **** 0.06
23906 C 37.09013962606281 58.316762882329805 87.10790311903486 C 0.0 **** -0.24
23907 H 36.97741532003431 58.99555035387803 87.95332108402003 H 0.0 **** 0.06
23908 H 37.83707346648339 57.560531174088304 87.34690126474153 H 0.0 **** 0.06
23909 H 37.41013848543031 58.88019512291585 86.2312243933574 H 0.0 **** 0.06
23910 H 36.134789153321776 57.833468907151556 86.9008277894436 H 0.0 **** 0.06
23911 C 55.7752573063606 83.61752762546001 35.24881723246756 C 0.0 **** -0.24
23912 H 56.05722783600467 83.04094175511216 34.36667314639874 H 0.0 **** 0.06
23913 H 55.69856085957656 84.67140729698644 34.982922550966414 H 0.0 **** 0.06
23914 H 56.53153587006622 83.49055938942496 36.021983721906274 H 0.0 **** 0.06
23915 H 54.812863756307706 83.26456372775931 35.62003805356498 H 0.0 **** 0.06
23916 C 75.44427232743894 81.91554740727827 76.9740926501575 C 0.0 **** -0.24
23917 H 75.3555254952181 82.60022290449203 76.13027322368475 H 0.0 **** 0.06
23918 H 75.02505766414083 82.38136749902418 77.86590845966407 H 0.0 **** 0.06
23919 H 76.49610492571776 81.68452324467634 77.14491651736878 H 0.0 **** 0.06
23920 H 74.9010187958549 80.99626747348356 76.75450951937225 H 0.0 **** 0.06
23921 C 67.6495669798364 51.110047846655554 50.901272492858766 C 0.0 **** -0.24
23922 H 68.22693327322762 51.8327631450362 50.323342071897116 H 0.0 **** 0.06
23923 H 67.64749921433607 51.40425631702809 51.951269102385 H 0.0 **** 0.06
23924 H 68.10006814808271 50.12285652290775 50.80155947346108 H 0.0 **** 0.06
23925 H 66.62549796422012 51.08243199381543 50.52964402001396 H 0.0 **** 0.06
23926 C 46.41190994258045 32.38162889756023 107.23837443272498 C 0.0 **** -0.24
23927 H 45.383659144315985 32.598351297498425 106.94762116210998 H 0.0 **** 0.06
23928 H 47.092302128982176 32.75144872229805 106.47071790363316 H 0.0 **** 0.06
23929 H 46.537783068250945 31.304226871526993 107.34733122618613 H 0.0 **** 0.06
23930 H 46.6320811058724 32.87181486575736 108.186325945398 H 0.0 **** 0.06
23931 C 12.55080533466301 71.09979062892948 87.81901831631652 C 0.0 **** -0.24
23932 H 11.690589175939593 70.85982547494491 88.44433954658354 H 0.0 **** 0.06
23933 H 13.418481312240957 71.28787513291215 88.45249871939797 H 0.0 **** 0.06
23934 H 12.332465465402521 71.98971524597415 87.22848751912042 H 0.0 **** 0.06
23935 H 12.759907481456537 70.26340432288642 87.15250579505432 H 0.0 **** 0.06
23936 C 17.4597518149284 68.28051948947314 52.70372951727219 C 0.0 **** -0.24
23937 H 18.2696783952078 68.96151741685014 52.96333390964895 H 0.0 **** 0.06
23938 H 17.667665629366343 67.82063161978192 51.73793259555354 H 0.0 **** 0.06
23939 H 16.522546050782335 68.83544161587741 52.64801070372811 H 0.0 **** 0.06
23940 H 17.37780863735891 67.50480748702057 53.46607131227876 H 0.0 **** 0.06
23941 C 66.55043857969451 5.4976838226961 52.23612877918504 C 0.0 **** -0.24
23942 H 66.92577013462584 4.766975304318898 52.95238013371275 H 0.0 **** 0.06
23943 H 66.22928948984989 4.985877211180927 51.32902405689717 H 0.0 **** 0.06
23944 H 67.34243169209603 6.206341876163526 51.993510940768346 H 0.0 **** 0.06
23945 H 65.70516873924491 6.032150706575395 52.671551401942935 H 0.0 **** 0.06
23946 C 82.54272210214361 86.3094566479771 47.65951637511614 C 0.0 **** -0.24
23947 H 82.91450091482574 85.56133604782629 46.95824474910088 H 0.0 **** 0.06
23948 H 81.56052524818912 86.65366403434659 47.334514247596104 H 0.0 **** 0.06
23949 H 83.2323320869856 87.15247161559638 47.68945825549935 H 0.0 **** 0.06
23950 H 82.46336624459471 85.8686722453153 48.65222297178431 H 0.0 **** 0.06
23951 C 51.9496475171544 32.97584050763295 1.531792969293008 C 0.0 **** -0.24
23952 H 51.06515294370331 32.37367382969226 1.7387817541786603 H 0.0 **** 0.06
23953 H 52.397713531420834 32.650831112309646 0.5926516138077886 H 0.0 **** 0.06
23954 H 52.67075219966031 32.852277330917225 2.340733626912879 H 0.0 **** 0.06
23955 H 51.66519417651719 34.02506892012718 1.456296369430163 H 0.0 **** 0.06
23956 C 97.9935602585841 98.14375083447538 0.0337838380361859 C 0.0 **** -0.24
23957 H 97.1526580090624 97.52547737210324 0.35017463057567966 H 0.0 **** 0.06
23958 H 98.05048256130492 98.14956581670259 -1.0551655724520685 H 0.0 **** 0.06
23959 H 98.91725050701197 97.73777119474119 0.4445033518660182 H 0.0 **** 0.06
23960 H 97.850897933018 99.16141490360343 0.39645173819252477 H 0.0 **** 0.06
23961 C 97.65755117281253 96.45567686924704 63.28586758430208 C 0.0 **** -0.24
23962 H 98.1807857421465 97.21147189952598 63.87061037410672 H 0.0 **** 0.06
23963 H 97.10767352199696 95.7950172897958 63.955761005241186 H 0.0 **** 0.06
23964 H 98.38154220560676 95.87389261057211 62.71443968331005 H 0.0 **** 0.06
23965 H 96.96155356332997 96.94196852360946 62.602437646743965 H 0.0 **** 0.06
23966 C 41.002423961669535 54.91908556459501 60.339137171861424 C 0.0 **** -0.24
23967 H 40.63325442759816 55.72054704086702 60.978609658570164 H 0.0 **** 0.06
23968 H 40.53563133473227 53.977866108824486 60.6311429239895 H 0.0 **** 0.06
23969 H 42.084248976359504 54.836993585758165 60.44529407939147 H 0.0 **** 0.06
23970 H 40.75535248070321 55.140455206285736 59.300946492811306 H 0.0 **** 0.06
23971 C 28.680162348383107 17.762337762100454 18.27973511824382 C 0.0 **** -0.24
23972 H 28.092405491595144 16.849940996136212 18.174817091520936 H 0.0 **** 0.06
23973 H 28.200761002806928 18.568635764588212 17.72427888100151 H 0.0 **** 0.06
23974 H 29.68259112682054 17.595826142570314 17.88656326038995 H 0.0 **** 0.06
23975 H 28.743507249906088 18.0332924009764 19.333865928418987 H 0.0 **** 0.06
23976 C 90.38687774601934 36.096855012475714 54.06832336270736 C 0.0 **** -0.24
23977 H 90.2060785669155 36.453487462511305 53.05451733449286 H 0.0 **** 0.06
23978 H 90.52826449549686 35.01582335212123 54.05372525047048 H 0.0 **** 0.06
23979 H 89.53186988677321 36.342849058916215 54.698594936141916 H 0.0 **** 0.06
23980 H 91.28144569484932 36.57573711609683 54.46777911738022 H 0.0 **** 0.06
23981 C 67.96769846008607 26.43647882207169 35.98857806470744 C 0.0 **** -0.24
23982 H 68.79175742267613 25.75686643936514 36.20831341440049 H 0.0 **** 0.06
23983 H 67.02591309921088 25.887796979426085 36.017652783909796 H 0.0 **** 0.06
23984 H 68.10778932736874 26.868168651802627 34.99774853718978 H 0.0 **** 0.06
23985 H 67.94774720416393 27.23333236576645 36.73236239737264 H 0.0 **** 0.06
23986 C 25.501422117144344 57.34642978517017 84.56533657008913 C 0.0 **** -0.24
23987 H 26.44833469113469 57.65001102332221 85.01210357434246 H 0.0 **** 0.06
23988 H 25.45231581763224 56.25836366315334 84.5207672256632 H 0.0 **** 0.06
23989 H 25.427719046672877 57.754846310974244 83.55733431770886 H 0.0 **** 0.06
23990 H 24.677318913137384 57.72249814323106 85.17114116264203 H 0.0 **** 0.06
23991 C 7.075201727413457 65.85403287461573 41.67730958545284 C 0.0 **** -0.24
23992 H 6.483150638592008 66.12379338630846 40.80209557374987 H 0.0 **** 0.06
23993 H 6.832659310868209 66.52599710598483 42.50096850370592 H 0.0 **** 0.06
23994 H 8.135350682499691 65.93965358458833 41.43862354767677 H 0.0 **** 0.06
23995 H 6.849193292190847 64.82763813697207 41.96557810527087 H 0.0 **** 0.06
23996 C 0.6896328546317534 39.43216487810923 68.76254837136881 C 0.0 **** -0.24
23997 H 0.966192282533342 40.144354693576645 67.98420888745451 H 0.0 **** 0.06
23998 H -0.07509333996651435 39.872427722472565 69.40142170881657 H 0.0 **** 0.06
23999 H 1.5679298051931596 39.18853272887091 69.36043513382711 H 0.0 **** 0.06
24000 H 0.3008465684804946 38.52489750655886 68.30100007221907 H 0.0 **** 0.06
24001 C 37.38447816486888 54.87111173157102 6.529538484093052 C 0.0 **** -0.24
24002 H 36.480729396063 55.47870809243283 6.574041827135773 H 0.0 **** 0.06
24003 H 37.83143457341319 54.81173452615061 7.521413979484123 H 0.0 **** 0.06
24004 H 38.094115983823315 55.32595121945436 5.837536316642058 H 0.0 **** 0.06
24005 H 37.131354350769016 53.868582223150106 6.183880159851071 H 0.0 **** 0.06
24006 C 75.11537682011561 87.6969472765648 66.41711030358488 C 0.0 **** -0.24
24007 H 75.29218345952762 88.49028461363253 67.14452015881244 H 0.0 **** 0.06
24008 H 75.55286251210487 87.97896423308259 65.4599596439977 H 0.0 **** 0.06
24009 H 74.04222941244848 87.5468637357364 66.29763511293902 H 0.0 **** 0.06
24010 H 75.5746018955399 86.77288354411678 66.7698486424809 H 0.0 **** 0.06
24011 C 40.16066626004744 5.18931043898904 59.61934499042445 C 0.0 **** -0.24
24012 H 41.167818318853946 4.965666031697509 59.26938273799571 H 0.0 **** 0.06
24013 H 39.55276903120527 4.28462720279056 59.57759555803908 H 0.0 **** 0.06
24014 H 39.71680263181473 5.955392570449106 58.983258518869306 H 0.0 **** 0.06
24015 H 40.204618458894515 5.5504622714585 60.64653253826627 H 0.0 **** 0.06
24016 C 94.20099642656456 86.72448748773257 53.01946359593186 C 0.0 **** -0.24
24017 H 95.2043259797228 86.44406559102126 53.340351595234495 H 0.0 **** 0.06
24018 H 93.9424271868719 86.1731115737004 52.114987325298145 H 0.0 **** 0.06
24019 H 94.16962728168892 87.7937861917145 52.815343810176515 H 0.0 **** 0.06
24020 H 93.48756077785208 86.48425238567995 53.808405580154016 H 0.0 **** 0.06
24021 C 13.167343304877996 40.241882837171836 103.73713955680455 C 0.0 **** -0.24
24022 H 12.979163315253153 41.21167710608594 103.27579789191776 H 0.0 **** 0.06
24023 H 13.753803924736808 39.62391055566303 103.05564191107374 H 0.0 **** 0.06
24024 H 12.217618769931544 39.75048743952961 103.94729087824948 H 0.0 **** 0.06
24025 H 13.718045853879389 40.38191279974794 104.6661885000093 H 0.0 **** 0.06
24026 C 27.29918045479225 55.34242171709374 102.96947173681207 C 0.0 **** -0.24
24027 H 27.381346960748814 56.417604082345974 103.12471418108294 H 0.0 **** 0.06
24028 H 27.943195091100165 55.04477138294604 102.14193432864404 H 0.0 **** 0.06
24029 H 26.265563689010776 55.08691228432485 102.73500623998615 H 0.0 **** 0.06
24030 H 27.606334071623927 54.82029799489081 103.87527810295376 H 0.0 **** 0.06
24031 C 56.412739129837455 94.03000191496426 66.7218686293095 C 0.0 **** -0.24
24032 H 57.022546301107184 94.11326326120209 65.82228400781938 H 0.0 **** 0.06
24033 H 56.8913909371113 94.57200496517248 67.53717951959383 H 0.0 **** 0.06
24034 H 56.31093899225665 92.97849924017771 66.9942942081246 H 0.0 **** 0.06
24035 H 55.42601769419201 94.45282971907511 66.53254827793813 H 0.0 **** 0.06
24036 C 58.67604837257386 30.784961019202285 10.87552279949934 C 0.0 **** -0.24
24037 H 57.70263107728494 31.226180920863897 11.092936158998764 H 0.0 **** 0.06
24038 H 59.3054397006338 31.52268852635666 10.377114886755669 H 0.0 **** 0.06
24039 H 58.54471324999724 29.920264657668554 10.225054493229996 H 0.0 **** 0.06
24040 H 59.14781999646027 30.47131249243415 11.806117668616572 H 0.0 **** 0.06
24041 C 4.011828345364263 70.96267640270166 83.74312806524503 C 0.0 **** -0.24
24042 H 4.887368777720324 70.34261431564589 83.55085563618432 H 0.0 **** 0.06
24043 H 4.199769179100352 71.97621948198677 83.3876587362896 H 0.0 **** 0.06
24044 H 3.811664479099349 70.98418215604745 84.81470853198891 H 0.0 **** 0.06
24045 H 3.1507201253313024 70.54748106247541 83.22032681233422 H 0.0 **** 0.06
24046 C 35.045974677892474 33.22685262865258 39.663410459652056 C 0.0 **** -0.24
24047 H 34.880438889539874 34.15918666781292 39.12451917079926 H 0.0 **** 0.06
24048 H 35.617616555918886 33.42827233498201 40.57031535177725 H 0.0 **** 0.06
24049 H 35.600769622506164 32.53423824264081 39.031226493897805 H 0.0 **** 0.06
24050 H 34.08458005329126 32.785847679128665 39.92975764411881 H 0.0 **** 0.06
24051 C 70.36128638200876 9.477794420367445 41.352872460689014 C 0.0 **** -0.24
24052 H 69.39020569764523 9.666146760276064 40.895789976988624 H 0.0 **** 0.06
24053 H 71.1014960851146 10.152919544067458 40.922429155518614 H 0.0 **** 0.06
24054 H 70.65723986254932 8.445911154266383 41.16537802002341 H 0.0 **** 0.06
24055 H 70.29589576497125 9.647579735711332 42.42784677403307 H 0.0 **** 0.06
24056 C 13.282698780193726 65.9876672906405 21.34009463688597 C 0.0 **** -0.24
24057 H 13.626523994034756 65.38732258530678 22.182101860080444 H 0.0 **** 0.06
24058 H 14.140035423852765 66.45483206629035 20.85356326266893 H 0.0 **** 0.06
24059 H 12.602437190317744 66.76025143748672 21.699627218926793 H 0.0 **** 0.06
24060 H 12.762920248213035 65.34943574784535 20.626624645129493 H 0.0 **** 0.06
24061 C 74.26282218339253 23.559053544617573 94.39105264523988 C 0.0 **** -0.24
24062 H 74.70475143281371 24.249355520954524 93.67170049834326 H 0.0 **** 0.06
24063 H 74.1001637954738 24.076068515337433 95.33660459358066 H 0.0 **** 0.06
24064 H 74.93664337562504 22.71664507277994 94.54688169446692 H 0.0 **** 0.06
24065 H 73.3093560601601 23.19635296644338 94.00602613439219 H 0.0 **** 0.06
24066 C 72.4323221763142 103.21335430027986 19.566833879592558 C 0.0 **** -0.24
24067 H 73.31557184743599 103.22195016532454 20.205565329682653 H 0.0 **** 0.06
24068 H 72.38171461736817 102.26697297751315 19.028626682711298 H 0.0 **** 0.06
24069 H 72.49241587224287 104.03530347184817 18.853390087522484 H 0.0 **** 0.06
24070 H 71.53929753313402 103.33099253974488 20.181387383027594 H 0.0 **** 0.06
24071 C 8.221489052656281 61.50993241312818 29.369367104367257 C 0.0 **** -0.24
24072 H 9.18029498347091 61.6655159668299 29.863669303358336 H 0.0 **** 0.06
24073 H 8.385193597750158 61.03270859925783 28.402862053219366 H 0.0 **** 0.06
24074 H 7.7289751790751975 62.47066699319663 29.221756651034582 H 0.0 **** 0.06
24075 H 7.593713689667471 60.87058190737645 29.989207167955527 H 0.0 **** 0.06
24076 C 65.93519845771317 71.11954681584194 16.581276514151796 C 0.0 **** -0.24
24077 H 66.26946689350888 70.1294827990829 16.89018192240053 H 0.0 **** 0.06
24078 H 65.86003022173105 71.15457857284338 15.493500642839706 H 0.0 **** 0.06
24079 H 66.6522512503002 71.86765273496127 16.92035997513358 H 0.0 **** 0.06
24080 H 64.9590760412591 71.32674768417081 17.019676504982044 H 0.0 **** 0.06
24081 C 107.26187140092702 81.0358424558066 40.71707802590504 C 0.0 **** -0.24
24082 H 108.20236396281842 81.5037902966377 41.01049132825659 H 0.0 **** 0.06
24083 H 107.32296764059885 80.72022507090821 39.67483490464531 H 0.0 **** 0.06
24084 H 106.44888390530775 81.75249171542146 40.833331627097095 H 0.0 **** 0.06
24085 H 107.07463434296 80.16863421431117 41.34968520372411 H 0.0 **** 0.06
24086 C 110.64006319411274 101.262101411535 37.87860793129187 C 0.0 **** -0.24
24087 H 111.0706650574434 100.87856770224703 38.804531118584066 H 0.0 **** 0.06
24088 H 109.70576449256535 100.74005685467023 37.66943526629149 H 0.0 **** 0.06
24089 H 111.3383236864703 101.09964045427142 37.058615025325054 H 0.0 **** 0.06
24090 H 110.44467042510149 102.329374175511 37.98378043409414 H 0.0 **** 0.06
24091 C 66.0459170595683 24.323907768982906 11.851476458205312 C 0.0 **** -0.24
24092 H 64.96057620988404 24.365484628162335 11.766840331539754 H 0.0 **** 0.06
24093 H 66.3204860288555 23.696237823420148 12.699476499706861 H 0.0 **** 0.06
24094 H 66.43672790301957 25.330580226124056 12.003352180659462 H 0.0 **** 0.06
24095 H 66.4661181734312 23.905398896779474 10.93704654321212 H 0.0 **** 0.06
24096 C 20.63511767667896 85.27512892965694 72.30171069638277 C 0.0 **** -0.24
24097 H 20.870313959692908 84.23741726543449 72.5425883559218 H 0.0 **** 0.06
24098 H 21.55740506489218 85.85572545629088 72.25835803603344 H 0.0 **** 0.06
24099 H 19.981741727697823 85.68619978829247 73.0705190548812 H 0.0 **** 0.06
24100 H 20.132715111691454 85.31784571290825 71.33523271863305 H 0.0 **** 0.06
24101 C 73.385657534919 1.4761049469488654 15.256198274963054 C 0.0 **** -0.24
24102 H 73.72520057071108 0.8751961201388667 14.412686668674567 H 0.0 **** 0.06
24103 H 72.7770677410665 2.3034832452500353 14.890770628545525 H 0.0 **** 0.06
24104 H 74.24847965377995 1.868814781246897 15.793787047193845 H 0.0 **** 0.06
24105 H 72.78988530664901 0.8568159271040798 15.927522597369489 H 0.0 **** 0.06
24106 C 37.11184728508779 2.59959636726596 8.624519818505973 C 0.0 **** -0.24
24107 H 36.92481348081391 2.394265940913499 7.570779587659786 H 0.0 **** 0.06
24108 H 36.878325658438726 1.7130708780645278 9.21488071073506 H 0.0 **** 0.06
24109 H 36.48455223870334 3.4292806591983833 8.950534596105626 H 0.0 **** 0.06
24110 H 38.16177505447549 2.8620575439702236 8.762659794259093 H 0.0 **** 0.06
24111 C 65.0126712584838 68.40910541251434 104.76796469280491 C 0.0 **** -0.24
24112 H 65.8054124359208 67.66980945799259 104.64987705076969 H 0.0 **** 0.06
24113 H 65.09641971986287 68.8781120980818 105.74787265305146 H 0.0 **** 0.06
24114 H 64.04340483977546 67.91858565062735 104.6813235999759 H 0.0 **** 0.06
24115 H 65.10682915864766 69.1686286875896 103.99158563814623 H 0.0 **** 0.06
24116 C 85.1384687078726 23.760690548688373 109.48972494385762 C 0.0 **** -0.24
24117 H 86.01269411860734 23.138800336478834 109.6790293658395 H 0.0 **** 0.06
24118 H 84.28863326166218 23.12528434602649 109.23763869974974 H 0.0 **** 0.06
24119 H 85.34594122563239 24.436473836478168 108.66049108262987 H 0.0 **** 0.06
24120 H 84.90578488660796 24.341673783331547 110.38276274111746 H 0.0 **** 0.06
24121 C 7.157698304503198 38.87439557022805 1.9367751285158095 C 0.0 **** -0.24
24122 H 7.7115165887240895 39.156504712347484 1.0412917527821932 H 0.0 **** 0.06
24123 H 6.636560122888191 37.93348946967749 1.7598671253670597 H 0.0 **** 0.06
24124 H 6.433182234508363 39.65206254747965 2.1768339320185195 H 0.0 **** 0.06
24125 H 7.851722305935562 38.7550723523536 2.769193546956142 H 0.0 **** 0.06
24126 C 24.94978550859412 96.49768522865375 15.474541932272729 C 0.0 **** -0.24
24127 H 23.93254859175744 96.1955421252338 15.224559223868766 H 0.0 **** 0.06
24128 H 25.29234233061726 95.9369562877512 16.343769503681884 H 0.0 **** 0.06
24129 H 24.96674575899496 97.56342429201766 15.699435814410876 H 0.0 **** 0.06
24130 H 25.607243787247654 96.29396682407852 14.628352095367731 H 0.0 **** 0.06
24131 C 59.08507751148619 9.02062509577064 47.77894011009415 C 0.0 **** -0.24
24132 H 59.254218952435394 9.110582969115057 46.70598974927893 H 0.0 **** 0.06
24133 H 59.144699171732555 10.006747728221683 48.2398448284829 H 0.0 **** 0.06
24134 H 59.84315420646678 8.369164027608136 48.21239353980244 H 0.0 **** 0.06
24135 H 58.096395519570365 8.59544702887375 47.95502338858082 H 0.0 **** 0.06
24136 C 31.1419712761084 94.97104482885624 12.89359339100504 C 0.0 **** -0.24
24137 H 32.08484036612081 94.4232385960155 12.892597384108257 H 0.0 **** 0.06
24138 H 30.486419699096786 94.56622418161726 12.12135171907643 H 0.0 **** 0.06
24139 H 31.333641366911827 96.02474078173691 12.692307231249302 H 0.0 **** 0.06
24140 H 30.663300763994805 94.8679499298525 13.866777161408336 H 0.0 **** 0.06
24141 C 41.97656183832487 95.28486437481928 102.91271739288806 C 0.0 **** -0.24
24142 H 41.9004924553976 95.17134537800109 101.83143685345078 H 0.0 **** 0.06
24143 H 41.13433434542313 94.7861486635266 103.39113474545326 H 0.0 **** 0.06
24144 H 41.96453052847255 96.34522576760475 103.16734409723006 H 0.0 **** 0.06
24145 H 42.9088137865088 94.83878203259997 103.25989545477495 H 0.0 **** 0.06
24146 C 92.97667503066454 5.341771919663401 107.9721313391971 C 0.0 **** -0.24
24147 H 93.4894584062035 6.242198746079509 107.63408479476185 H 0.0 **** 0.06
24148 H 93.70836750188278 4.629457553193092 108.355403019745 H 0.0 **** 0.06
24149 H 92.43705072978928 4.895111471535486 107.13750522562577 H 0.0 **** 0.06
24150 H 92.27280952834897 5.599770430575376 108.76370627490732 H 0.0 **** 0.06
24151 C 98.47353774352885 106.84213850546165 7.951306468896888 C 0.0 **** -0.24
24152 H 99.07240785539628 106.55652206262747 7.08661487128083 H 0.0 **** 0.06
24153 H 98.08756651469571 105.9461418806979 8.438262351184221 H 0.0 **** 0.06
24154 H 97.64154156573399 107.46659481299895 7.626065936424084 H 0.0 **** 0.06
24155 H 99.09292163125538 107.4001523727729 8.653854602332189 H 0.0 **** 0.06
24156 C 65.1678169619978 98.45150376327118 30.266147858714476 C 0.0 **** -0.24
24157 H 66.08184650688543 98.13355009601193 30.766564815839814 H 0.0 **** 0.06
24158 H 65.39825079703161 98.74926276755211 29.242899799967063 H 0.0 **** 0.06
24159 H 64.73535086930985 99.29586209387126 30.8022362680384 H 0.0 **** 0.06
24160 H 64.45519822422654 97.62656734940691 30.25276127320504 H 0.0 **** 0.06
24161 C 14.188883311495331 4.0847282437027275 40.98349623403597 C 0.0 **** -0.24
24162 H 15.007943477371398 4.750946395803567 41.252393045897485 H 0.0 **** 0.06
24163 H 14.194601070409846 3.9180403665974666 39.906106696803334 H 0.0 **** 0.06
24164 H 13.241509901107506 4.535827381959081 41.277302091082554 H 0.0 **** 0.06
24165 H 14.311745396178324 3.131912642936072 41.4985700913323 H 0.0 **** 0.06
24166 C 110.5260869073918 98.90677995122857 55.27567084264408 C 0.0 **** -0.24
24167 H 109.77597280413823 98.46994996764165 55.93462615962445 H 0.0 **** 0.06
24168 H 110.35678833753627 98.56514802553117 54.25400631493398 H 0.0 **** 0.06
24169 H 111.51991326122248 98.60023033632173 55.60145946843283 H 0.0 **** 0.06
24170 H 110.45178909510213 99.99414652548526 55.31192763894414 H 0.0 **** 0.06
24171 C 98.036755489381 23.54748487448245 32.657258699339025 C 0.0 **** -0.24
24172 H 97.99193491764197 24.15029642975253 33.56451119828154 H 0.0 **** 0.06
24173 H 97.04708168461661 23.146161259345547 32.43853773438025 H 0.0 **** 0.06
24174 H 98.73916815392158 22.72586173452933 32.8022851302585 H 0.0 **** 0.06
24175 H 98.36980843075787 24.167944488514507 31.82633737454458 H 0.0 **** 0.06
24176 C 109.15569428218514 26.655889732765594 60.97525385212623 C 0.0 **** -0.24
24177 H 109.16636312623018 27.72308896521337 60.75386572528319 H 0.0 **** 0.06
24178 H 110.1668157210033 26.25732497447971 60.89237864168692 H 0.0 **** 0.06
24179 H 108.5038370770135 26.1441477638978 60.267906678072166 H 0.0 **** 0.06
24180 H 108.78567016802879 26.49976251026545 61.98896348375331 H 0.0 **** 0.06
24181 C 10.676222340291758 99.99407566264388 90.07783444509982 C 0.0 **** -0.24
24182 H 10.576608740164943 98.9426986769295 89.80770798300432 H 0.0 **** 0.06
24183 H 9.749466302084556 100.34216642981345 90.53402387698713 H 0.0 **** 0.06
24184 H 10.883359742569894 100.58047118362634 89.1828774060275 H 0.0 **** 0.06
24185 H 11.496283292298159 100.1111158363014 90.78618912857439 H 0.0 **** 0.06
24186 C 82.86918347982089 50.69259862669733 18.976110875431083 C 0.0 **** -0.24
24187 H 83.59561374712138 51.48499462698729 18.795532963724515 H 0.0 **** 0.06
24188 H 83.3535893299574 49.86844117826223 19.49926398661443 H 0.0 **** 0.06
24189 H 82.47601925467359 50.33820810642598 18.02344620997909 H 0.0 **** 0.06
24190 H 82.05255492103839 51.0816344886631 19.584937342498574 H 0.0 **** 0.06
24191 C 106.24412339320938 65.35417460015054 41.58150994960043 C 0.0 **** -0.24
24192 H 106.20998346633834 66.41958300029175 41.352559808617784 H 0.0 **** 0.06
24193 H 106.99257221831027 65.17243316516938 42.353250303152606 H 0.0 **** 0.06
24194 H 106.50767946875834 64.79782175906708 40.68205264734584 H 0.0 **** 0.06
24195 H 105.26744768989175 65.02718937031752 41.9374859785778 H 0.0 **** 0.06
24196 C 87.8811397861923 1.272349769737147 71.36609745265451 C 0.0 **** -0.24
24197 H 87.57868325455377 2.2740503162229544 71.05894138475566 H 0.0 **** 0.06
24198 H 88.83505068810328 1.0232350011259257 70.90160360148406 H 0.0 **** 0.06
24199 H 87.12479989416153 0.5523040314498076 71.05201165587675 H 0.0 **** 0.06
24200 H 87.98485263804469 1.2403459814366045 72.45067669512036 H 0.0 **** 0.06
24201 C 51.82748979559216 96.86257225209745 40.95210074037482 C 0.0 **** -0.24
24202 H 51.592553326686755 97.65074077312792 41.666938438306346 H 0.0 **** 0.06
24203 H 52.09241116242134 97.30825538411598 39.992893261830204 H 0.0 **** 0.06
24204 H 50.9593598879469 96.21626225020634 40.824431030847165 H 0.0 **** 0.06
24205 H 52.666772316715026 96.27468955562568 41.32337220938322 H 0.0 **** 0.06
24206 C 15.714501480208583 108.76013206430878 46.87442718379161 C 0.0 **** -0.24
24207 H 15.87721725990535 109.76475009576848 46.48328405260858 H 0.0 **** 0.06
24208 H 16.210216936820217 108.66074431368861 47.84053123431522 H 0.0 **** 0.06
24209 H 16.123705757141508 108.02777039753028 46.17823755472273 H 0.0 **** 0.06
24210 H 14.644690384452787 108.5877472781466 46.99583755990679 H 0.0 **** 0.06
24211 C 51.07154281510583 18.9649805651282 1.8744481254319165 C 0.0 **** -0.24
24212 H 50.525779765699895 19.418925433862427 1.0471933336986465 H 0.0 **** 0.06
24213 H 50.49141499873559 19.064857265692098 2.79198019982079 H 0.0 **** 0.06
24214 H 52.03078221159717 19.468576749139373 1.994973658667531 H 0.0 **** 0.06
24215 H 51.23894179489366 17.90888142933254 1.662807081210718 H 0.0 **** 0.06
24216 C 60.556901066798346 100.04021170608314 32.0392912284853 C 0.0 **** -0.24
24217 H 60.233652873622304 99.13811232471745 32.55864278409399 H 0.0 **** 0.06
24218 H 59.68515004734196 100.57524344385709 31.66458353356532 H 0.0 **** 0.06
24219 H 61.202851250705066 99.76654152957704 31.204763367728503 H 0.0 **** 0.06
24220 H 61.10658449160137 100.67916317980364 32.73072661822158 H 0.0 **** 0.06
24221 C 106.63365849215567 44.249491576810016 10.675037353038448 C 0.0 **** -0.24
24222 H 106.92816175738871 45.17193106681273 11.176056288005668 H 0.0 **** 0.06
24223 H 107.5230892856755 43.664639771343616 10.43802675873664 H 0.0 **** 0.06
24224 H 106.10139773371517 44.49016338755379 9.754350470406848 H 0.0 **** 0.06
24225 H 105.982361183959 43.67177106950098 11.330113311862476 H 0.0 **** 0.06
24226 C 45.843836461172884 77.60147079879577 100.9469304451764 C 0.0 **** -0.24
24227 H 46.713852413160055 78.21812738710153 100.72323515367326 H 0.0 **** 0.06
24228 H 46.16973716655241 76.66666870256773 101.40521376673362 H 0.0 **** 0.06
24229 H 45.30298766596252 77.38627427494175 100.02501352833002 H 0.0 **** 0.06
24230 H 45.188334435354534 78.13467233972537 101.63644839926435 H 0.0 **** 0.06
24231 C 50.597225087565285 14.53533766388012 1.1221612631062001 C 0.0 **** -0.24
24232 H 49.87821696889899 15.304694492637864 0.8411361489025015 H 0.0 **** 0.06
24233 H 51.58769154932946 14.982439008976929 1.2165296577479126 H 0.0 **** 0.06
24234 H 50.61925071637922 13.762279790033922 0.35442165995583075 H 0.0 **** 0.06
24235 H 50.30490694192037 14.09455337915249 2.074149678625063 H 0.0 **** 0.06
24236 C 58.83599968748679 15.311859921865945 52.79521511728379 C 0.0 **** -0.24
24237 H 59.8154201352736 14.899250151346322 53.03774038800074 H 0.0 **** 0.06
24238 H 58.278876021567626 15.488733305570307 53.715346504294615 H 0.0 **** 0.06
24239 H 58.28999162890693 14.605464131430452 52.16962584462124 H 0.0 **** 0.06
24240 H 58.96071542576462 16.251400384734268 52.257623827892644 H 0.0 **** 0.06
24241 C 36.266628244294594 82.8687160630858 64.81553716629787 C 0.0 **** -0.24
24242 H 36.42537052302845 82.52736794178355 65.83860856918307 H 0.0 **** 0.06
24243 H 37.212485441384416 83.21203115477189 64.3964349769762 H 0.0 **** 0.06
24244 H 35.54864820805429 83.6883967700814 64.81383383655623 H 0.0 **** 0.06
24245 H 35.879659257852694 82.04517930320702 64.21479098177895 H 0.0 **** 0.06
24246 C 89.5969047358294 67.54492377130926 63.37581537560982 C 0.0 **** -0.24
24247 H 88.86838082815122 68.34364226585056 63.518963791129636 H 0.0 **** 0.06
24248 H 89.9185451077307 67.53048363981414 62.333690255890474 H 0.0 **** 0.06
24249 H 89.14037792417533 66.58816909102846 63.62983209702293 H 0.0 **** 0.06
24250 H 90.45888744183789 67.7197929729425 64.01966342462174 H 0.0 **** 0.06
24251 C 105.293075742932 36.61654743370594 87.09739082022556 C 0.0 **** -0.24
24252 H 105.43195443439306 35.55671154576382 86.8862125001616 H 0.0 **** 0.06
24253 H 104.77434095553113 36.73171288159983 88.04942123061987 H 0.0 **** 0.06
24254 H 104.70142889328649 37.071477551222195 86.30346243150781 H 0.0 **** 0.06
24255 H 106.26546669852371 37.1067413101678 87.15246861266712 H 0.0 **** 0.06
24256 C 66.20847965504055 94.64674973581987 30.581147058515988 C 0.0 **** -0.24
24257 H 67.21216871363202 94.91354566545174 30.250727749768558 H 0.0 **** 0.06
24258 H 65.63751079496888 94.26167045938301 29.735204191423577 H 0.0 **** 0.06
24259 H 65.7118987021674 95.52949620054537 30.98348491193606 H 0.0 **** 0.06
24260 H 66.27259548153023 93.88145603931207 31.35467627721617 H 0.0 **** 0.06
24261 C 53.33822297417669 97.24220600391243 88.42547504175613 C 0.0 **** -0.24
24262 H 52.88249257846269 97.698105324001 87.54600281731626 H 0.0 **** 0.06
24263 H 52.73580976602611 96.39225918774127 88.7465240757827 H 0.0 **** 0.06
24264 H 53.38891265043594 97.97619985747943 89.22998752411297 H 0.0 **** 0.06
24265 H 54.34336110552226 96.90314726187205 88.1780257392511 H 0.0 **** 0.06
24266 C 14.766830357246889 0.7125950070362848 16.96914026050899 C 0.0 **** -0.24
24267 H 14.770184350483731 0.12415767018829627 16.051700357169572 H 0.0 **** 0.06
24268 H 15.65655277323016 1.3427553505082699 16.99822236428147 H 0.0 **** 0.06
24269 H 14.766866505153402 0.0440405008927911 17.829891438541967 H 0.0 **** 0.06
24270 H 13.875416648320154 1.3396392353517115 16.994495423965784 H 0.0 **** 0.06
24271 C 71.71390764890532 86.22602298873338 52.90900857432848 C 0.0 **** -0.24
24272 H 72.7383201261307 85.89696758556359 53.08397245746647 H 0.0 **** 0.06
24273 H 71.14915215721638 86.16577794557499 53.84078785952596 H 0.0 **** 0.06
24274 H 71.24902003862738 85.58427268987852 52.16071332122192 H 0.0 **** 0.06
24275 H 71.71866362430613 87.25505442248682 52.55314863947143 H 0.0 **** 0.06
24276 C 21.24732485740506 39.93975222298002 62.6556747073266 C 0.0 **** -0.24
24277 H 21.570820071606363 39.04199172214402 63.181756093827886 H 0.0 **** 0.06
24278 H 20.901752420669823 40.679565085041304 63.37757798414607 H 0.0 **** 0.06
24279 H 20.4338142099661 39.68868101910692 61.97459582852393 H 0.0 **** 0.06
24280 H 22.083521151787153 40.34837771081936 62.08755434786694 H 0.0 **** 0.06
24281 C 65.09862233288572 58.22880523469993 41.36623301583768 C 0.0 **** -0.24
24282 H 65.25940381548355 57.15124581049546 41.35825298040497 H 0.0 **** 0.06
24283 H 65.17306641295158 58.61436247357025 40.348351620144854 H 0.0 **** 0.06
24284 H 65.85297872533567 58.70389495656117 41.99217298406241 H 0.0 **** 0.06
24285 H 64.10715441612774 58.44456407984753 41.76412648319338 H 0.0 **** 0.06
24286 C 36.89624078426883 83.81256972459948 100.38536703309114 C 0.0 **** -0.24
24287 H 36.34062669476424 83.05722360221853 100.94192699980202 H 0.0 **** 0.06
24288 H 37.7472830974657 84.14767939262711 100.97765175063448 H 0.0 **** 0.06
24289 H 36.243562270759014 84.65970965010507 100.17382400994892 H 0.0 **** 0.06
24290 H 37.250516477254735 83.38459737464302 99.44816423837356 H 0.0 **** 0.06
24291 C 13.230212824055684 73.8141817352122 38.335829662866104 C 0.0 **** -0.24
24292 H 13.84164212275067 72.93279572763788 38.529859716747524 H 0.0 **** 0.06
24293 H 13.54768645636284 74.62749476028546 38.98845601243738 H 0.0 **** 0.06
24294 H 12.183749745413891 73.57928834223117 38.53046227249081 H 0.0 **** 0.06
24295 H 13.34772900395015 74.11587153403053 37.29514770778758 H 0.0 **** 0.06
24296 C 65.0623052260539 51.45804864695066 8.04148282940011 C 0.0 **** -0.24
24297 H 64.10153786437297 51.83371908660666 8.394782384377322 H 0.0 **** 0.06
24298 H 65.16496620694033 51.6690685215151 6.976170123805076 H 0.0 **** 0.06
24299 H 65.11467196828607 50.38204067001726 8.205456167140966 H 0.0 **** 0.06
24300 H 65.86719865775103 51.94941292706193 8.588475936573374 H 0.0 **** 0.06
24301 C 4.1517091150216014 99.15611174036596 65.52286924087599 C 0.0 **** -0.24
24302 H 4.6299186524071985 99.86300214682362 64.8454371168361 H 0.0 **** 0.06
24303 H 3.142982225157491 99.50062312921831 65.75354599117584 H 0.0 **** 0.06
24304 H 4.731264170447943 99.0862651231682 66.44275731122596 H 0.0 **** 0.06
24305 H 4.101028238112965 98.17608147595374 65.04874916429495 H 0.0 **** 0.06
24306 C 106.4185261561759 58.79789856759275 76.33221928822906 C 0.0 **** -0.24
24307 H 105.50426524933235 58.899458961742425 76.91632045677557 H 0.0 **** 0.06
24308 H 106.20253779682994 58.256519094910686 75.41043564029496 H 0.0 **** 0.06
24309 H 107.15915393106512 58.24641529783721 76.91250585454469 H 0.0 **** 0.06
24310 H 106.80791449962005 59.786484892413924 76.0908679227785 H 0.0 **** 0.06
24311 C 110.72401950869039 92.6238474897902 35.218278546827776 C 0.0 **** -0.24
24312 H 111.36570865268064 92.50480212481051 34.3454876468154 H 0.0 **** 0.06
24313 H 111.30577138612699 92.45394868138402 36.124187964628106 H 0.0 **** 0.06
24314 H 109.90741305155296 91.90211203621237 35.169507010394625 H 0.0 **** 0.06
24315 H 110.31435026446485 93.63388078057034 35.23233551025771 H 0.0 **** 0.06
24316 C 5.454429831842987 21.155997295662864 87.84905789294766 C 0.0 **** -0.24
24317 H 5.377651166494161 22.200234130200013 87.54510027656346 H 0.0 **** 0.06
24318 H 4.975698294863861 21.02455521053827 88.82008667143589 H 0.0 **** 0.06
24319 H 6.504949783111115 20.87394088218964 87.92007020050977 H 0.0 **** 0.06
24320 H 4.958440847067763 20.525460838618038 87.11095461498437 H 0.0 **** 0.06
24321 C 52.035433427803014 78.69447920385005 103.62882223703747 C 0.0 **** -0.24
24322 H 51.39000176025837 77.82171653534385 103.52778244760111 H 0.0 **** 0.06
24323 H 53.01066296634309 78.47555683939146 103.19316283763612 H 0.0 **** 0.06
24324 H 52.15497701546201 78.9375467365112 104.68464809337985 H 0.0 **** 0.06
24325 H 51.585966754742344 79.54093339982643 103.11024755424955 H 0.0 **** 0.06
24326 C 39.49829238006214 40.08240059709391 6.842610391891412 C 0.0 **** -0.24
24327 H 38.576743996471066 39.96958708458206 6.272348720959371 H 0.0 **** 0.06
24328 H 40.28514344698749 39.482989888309504 6.383940611097273 H 0.0 **** 0.06
24329 H 39.33491046595503 39.74608272127111 7.867184665135369 H 0.0 **** 0.06
24330 H 39.79608858484983 41.130776020688586 6.847912116034308 H 0.0 **** 0.06
24331 C 35.51110155794968 20.820296472449424 8.398639128771777 C 0.0 **** -0.24
24332 H 35.083608756416844 20.789262405191355 7.396402865445339 H 0.0 **** 0.06
24333 H 35.48427852846711 21.843711139015493 8.772547763584015 H 0.0 **** 0.06
24334 H 36.543459304164145 20.472983363430682 8.363131423206852 H 0.0 **** 0.06
24335 H 34.93226789290595 20.175794593085495 9.059636564163554 H 0.0 **** 0.06
24336 C 84.71424598796824 106.30890495124383 96.75053559518454 C 0.0 **** -0.24
24337 H 85.2225908383989 105.35356083605963 96.61875591344676 H 0.0 **** 0.06
24338 H 85.35258815016948 107.11376381804227 96.38838350513916 H 0.0 **** 0.06
24339 H 84.50005364566681 106.46226846436792 97.80839476508268 H 0.0 **** 0.06
24340 H 83.77983614235109 106.30345064527339 96.1885309084561 H 0.0 **** 0.06
24341 C 47.21687079136262 51.66344935193262 4.671674469898221 C 0.0 **** -0.24
24342 H 46.967505490225506 52.530373981337256 5.284810217063921 H 0.0 **** 0.06
24343 H 47.27008818038604 51.962030353542275 3.6248841331157564 H 0.0 **** 0.06
24344 H 46.44789446741049 50.900486169076906 4.7933680763144935 H 0.0 **** 0.06
24345 H 48.179609830488175 51.262555642782615 4.985778616379207 H 0.0 **** 0.06
24346 C 68.62032833825965 20.041964588309554 108.81012909627455 C 0.0 **** -0.24
24347 H 67.85979862714247 19.331101137965106 108.48674471867685 H 0.0 **** 0.06
24348 H 68.34595114855958 20.450308684234017 109.78358688507137 H 0.0 **** 0.06
24349 H 68.69248045642934 20.85137295791162 108.0836320921388 H 0.0 **** 0.06
24350 H 69.58220406830208 19.53615253682335 108.88629285028027 H 0.0 **** 0.06
24351 C 57.09337737284645 75.01017001757285 6.738443078288611 C 0.0 **** -0.24
24352 H 56.462637884088394 74.15712619668747 6.490189940040665 H 0.0 **** 0.06
24353 H 58.060040815599876 74.65541612233255 7.094832126631445 H 0.0 **** 0.06
24354 H 56.61348034327065 75.60190355353737 7.518373861974936 H 0.0 **** 0.06
24355 H 57.236644450147196 75.62653570970826 5.851017248951564 H 0.0 **** 0.06
24356 C 100.01074437436833 2.232179885520054 5.6333333602055955 C 0.0 **** -0.24
24357 H 100.91169402696525 2.5123691669897426 5.089180502879746 H 0.0 **** 0.06
24358 H 99.29859981047633 3.0581576252394598 5.6066177101499886 H 0.0 **** 0.06
24359 H 100.26668089665849 2.007107056514826 6.66920376937791 H 0.0 **** 0.06
24360 H 99.564779729668 1.3523102144804398 5.170064963012084 H 0.0 **** 0.06
24361 C 64.67333276468825 4.235988554083178 37.59272382842721 C 0.0 **** -0.24
24362 H 63.724412257449316 3.740786512676607 37.38432615257477 H 0.0 **** 0.06
24363 H 64.87428830780685 4.97568732813636 36.817334662599734 H 0.0 **** 0.06
24364 H 65.4731483030068 3.495969228178808 37.60522194537049 H 0.0 **** 0.06
24365 H 64.62020607833365 4.729827197722386 38.56277313672399 H 0.0 **** 0.06
24366 C 81.53877253233577 108.07500203635576 107.80641836515667 C 0.0 **** -0.24
24367 H 81.06040868631541 107.32624497573653 107.17555895601063 H 0.0 **** 0.06
24368 H 82.55937760105587 107.76400205924972 108.028976287793 H 0.0 **** 0.06
24369 H 80.97868967965894 108.17863450280728 108.73552988731763 H 0.0 **** 0.06
24370 H 81.55641755534481 109.03133207964177 107.2831753419148 H 0.0 **** 0.06
24371 C 50.59245353745099 66.09953828672684 95.87029546922057 C 0.0 **** -0.24
24372 H 50.120257445099064 65.8870551062675 94.91062754261513 H 0.0 **** 0.06
24373 H 49.82279260680911 66.26545752212493 96.62446960048909 H 0.0 **** 0.06
24374 H 51.2120125733688 66.99140485549822 95.77981716083522 H 0.0 **** 0.06
24375 H 51.21343589752096 65.25323733940112 96.16476001633488 H 0.0 **** 0.06
24376 C 87.9263380013731 39.65948947536583 86.11528817414998 C 0.0 **** -0.24
24377 H 87.38042094439277 39.26003455871745 85.2603197002954 H 0.0 **** 0.06
24378 H 88.67043679759252 38.93341964201386 86.44333287995818 H 0.0 **** 0.06
24379 H 87.22970356829615 39.85925387612002 86.93005466232351 H 0.0 **** 0.06
24380 H 88.42406680411074 40.585892571158695 85.82769627034939 H 0.0 **** 0.06
24381 C 41.51970258402737 14.636837337756862 99.36238746374636 C 0.0 **** -0.24
24382 H 42.309335927507476 14.712146983950483 100.11123088206807 H 0.0 **** 0.06
24383 H 40.74585920036843 13.95739514368466 99.71802547705062 H 0.0 **** 0.06
24384 H 41.938293695326465 14.256057967131689 98.43126220947431 H 0.0 **** 0.06
24385 H 41.08774437903894 15.62262259250597 99.19056994035168 H 0.0 **** 0.06
24386 C 106.90054414127727 66.75379727853698 34.46912258603774 C 0.0 **** -0.24
24387 H 106.97903461022204 67.80908083345855 34.20919075096765 H 0.0 **** 0.06
24388 H 106.76542945927396 66.65442700591626 35.54663145206328 H 0.0 **** 0.06
24389 H 107.8119899377987 66.23716812198694 34.16814150235331 H 0.0 **** 0.06
24390 H 106.04637393342918 66.31516899523274 33.952908254766555 H 0.0 **** 0.06
24391 C 94.29547134390151 1.2479569676738436 51.49596109654569 C 0.0 **** -0.24
24392 H 94.53080056277969 1.8666614794248204 50.630693186946154 H 0.0 **** 0.06
24393 H 95.22138863988579 0.9238479452007624 51.97323705222063 H 0.0 **** 0.06
24394 H 93.72734042712094 0.3747232037986521 51.17472005451691 H 0.0 **** 0.06
24395 H 93.70315634591765 1.8258298762126373 52.20607349845411 H 0.0 **** 0.06
24396 C 49.060982514696185 15.666886273876372 66.00279586374485 C 0.0 **** -0.24
24397 H 48.739620353479616 15.876004466559621 67.02295695691502 H 0.0 **** 0.06
24398 H 48.19976735840403 15.374108708870637 65.40367701421636 H 0.0 **** 0.06
24399 H 49.791250773643796 14.857301836184803 66.01201948880347 H 0.0 **** 0.06
24400 H 49.515917895442826 16.560461398828025 65.575174492364 H 0.0 **** 0.06
24401 C 73.21237700661004 28.352947258515016 54.69217553814582 C 0.0 **** -0.24
24402 H 72.58188690440375 27.493979214177273 54.464077259068176 H 0.0 **** 0.06
24403 H 74.21277548880306 28.186932854318968 54.290658539529346 H 0.0 **** 0.06
24404 H 73.27031549284965 28.483297756578423 55.773074997334675 H 0.0 **** 0.06
24405 H 72.78312779178663 29.247762289952846 54.240890785222774 H 0.0 **** 0.06
24406 C 95.1408353198128 31.81881004369029 8.808926376702146 C 0.0 **** -0.24
24407 H 94.48542036301616 30.94760277592843 8.788071923894037 H 0.0 **** 0.06
24408 H 95.280138050324 32.19279490310481 7.793147387196569 H 0.0 **** 0.06
24409 H 96.10708432005337 31.53754658728687 9.227622527755955 H 0.0 **** 0.06
24410 H 94.68999700048462 32.59737922532102 9.423947961377877 H 0.0 **** 0.06
24411 C 24.929109952316338 21.31177663704671 102.08639609937256 C 0.0 **** -0.24
24412 H 25.845497529747746 21.90140013279961 102.05130050586203 H 0.0 **** 0.06
24413 H 24.20631517742521 21.721550845183028 101.38047431036887 H 0.0 **** 0.06
24414 H 24.51356499408672 21.345917411775197 103.09344203727889 H 0.0 **** 0.06
24415 H 25.15106210800562 20.278238158429037 101.82036754398024 H 0.0 **** 0.06
24416 C 14.195967450376322 103.98117850589816 66.14242206773895 C 0.0 **** -0.24
24417 H 14.780329799056553 103.20005026758703 66.62939751567518 H 0.0 **** 0.06
24418 H 13.135156097180595 103.80927812140439 66.32832077458028 H 0.0 **** 0.06
24419 H 14.386248153834607 103.961218482436 65.06977229409674 H 0.0 **** 0.06
24420 H 14.482695182975572 104.95279627610263 66.54563402754377 H 0.0 **** 0.06
24421 C 78.52610345410613 62.67635589140298 73.73341989923577 C 0.0 **** -0.24
24422 H 78.37325055868257 62.4125436195564 72.68650832048435 H 0.0 **** 0.06
24423 H 79.20780706224991 63.52423180639505 73.79785077864607 H 0.0 **** 0.06
24424 H 78.95273040006282 61.82459966685025 74.2628785858089 H 0.0 **** 0.06
24425 H 77.5700578449214 62.94199020698011 74.1843344427891 H 0.0 **** 0.06
24426 C 86.12525981197149 36.525502607825196 36.90830083450851 C 0.0 **** -0.24
24427 H 85.5329268072403 36.37235850301485 37.81138793756401 H 0.0 **** 0.06
24428 H 87.17935794477643 36.606159094511526 37.17596750826942 H 0.0 **** 0.06
24429 H 85.80417179461142 37.44289162107004 36.41418986252319 H 0.0 **** 0.06
24430 H 85.98407681594998 35.6807416300569 36.23443737586706 H 0.0 **** 0.06
24431 C 72.0817957652302 81.2445159510653 80.15399350190236 C 0.0 **** -0.24
24432 H 71.1905928728307 81.58766414307834 80.68078523027322 H 0.0 **** 0.06
24433 H 72.86521477051599 81.01635407258141 80.87691435994668 H 0.0 **** 0.06
24434 H 72.42722867698319 82.02571265381488 79.4766947804377 H 0.0 **** 0.06
24435 H 71.84178776571031 80.34828370633636 79.58223775224297 H 0.0 **** 0.06
24436 C 86.23921176496076 4.4838368007877705 42.85669303336124 C 0.0 **** -0.24
24437 H 85.16163316891546 4.338374988266807 42.93728458868907 H 0.0 **** 0.06
24438 H 86.44045059436024 5.403503311445391 42.30763005248821 H 0.0 **** 0.06
24439 H 86.68069953779752 3.6397525838370655 42.3262883351388 H 0.0 **** 0.06
24440 H 86.67200878745092 4.553103520632774 43.854385150386236 H 0.0 **** 0.06
24441 C 64.73473697765051 41.7672867888794 30.162484041185962 C 0.0 **** -0.24
24442 H 65.27002475136254 41.95990913613028 31.09236434157782 H 0.0 **** 0.06
24443 H 63.67173689190216 41.645220121800776 30.374810137661235 H 0.0 **** 0.06
24444 H 65.12043836866344 40.858384482839824 29.70241808096504 H 0.0 **** 0.06
24445 H 64.87486427539233 42.60770720458703 29.482118967061986 H 0.0 **** 0.06
24446 C 22.454766121178466 40.20116750685685 108.95998674783822 C 0.0 **** -0.24
24447 H 22.672412513751738 40.51997264109613 109.97981963336079 H 0.0 **** 0.06
24448 H 21.455799800804414 40.53619719843465 108.68099727879215 H 0.0 **** 0.06
24449 H 22.504702179957803 39.11473653325186 108.90048234348639 H 0.0 **** 0.06
24450 H 23.187893669698923 40.63668572834047 108.2802039397515 H 0.0 **** 0.06
24451 C 37.62757991721062 3.8271594335951846 5.089941344257369 C 0.0 **** -0.24
24452 H 37.64461405167579 2.943169597136162 5.727593718564037 H 0.0 **** 0.06
24453 H 37.30461255783383 3.5465551444036834 4.087475363025362 H 0.0 **** 0.06
24454 H 38.62670478136879 4.2599277967708815 5.04234127631787 H 0.0 **** 0.06
24455 H 36.933762812517784 4.559442676964835 5.50298712234536 H 0.0 **** 0.06
24456 C 0.8626832661073252 75.74481230624633 63.90654558226004 C 0.0 **** -0.24
24457 H 1.864290052302195 75.5272546080343 63.53579739209124 H 0.0 **** 0.06
24458 H 0.7779555879870088 76.8109452429137 64.11958682031877 H 0.0 **** 0.06
24459 H 0.6819707888237332 75.17577701700702 64.8187443518147 H 0.0 **** 0.06
24460 H 0.12668461571584544 75.46515294217983 63.1510752082479 H 0.0 **** 0.06
24461 C 93.93105853036593 27.144644365904185 98.74471407746555 C 0.0 **** -0.24
24462 H 93.77727670788744 26.222165123033136 99.30430760155049 H 0.0 **** 0.06
24463 H 94.83811654758779 27.63741118926859 99.09853391391883 H 0.0 **** 0.06
24464 H 93.07701541522334 27.80637095472835 98.89253174267765 H 0.0 **** 0.06
24465 H 94.0324344466328 26.9149061788097 97.68415337299568 H 0.0 **** 0.06
24466 C 72.90447283793245 80.1705633659057 68.92612121532471 C 0.0 **** -0.24
24467 H 73.24814387327035 79.59126516942473 68.06824906392569 H 0.0 **** 0.06
24468 H 73.43183479884465 79.84129799460928 69.82076938632031 H 0.0 **** 0.06
24469 H 71.83356323483329 80.02180888347897 69.05862170120247 H 0.0 **** 0.06
24470 H 73.10577015983648 81.22827416548807 68.75299397337858 H 0.0 **** 0.06
24471 C 38.4905266137614 69.13838894245521 47.631228207745195 C 0.0 **** -0.24
24472 H 37.65330987377894 69.05226167785588 46.93852267088003 H 0.0 **** 0.06
24473 H 38.11284431621624 69.18242839541716 48.65279188376728 H 0.0 **** 0.06
24474 H 39.051198177982855 70.04660096149956 47.41121904352191 H 0.0 **** 0.06
24475 H 39.1431764085834 68.27233769535303 47.52079624235613 H 0.0 **** 0.06
24476 C 5.209586575227567 53.42765787679054 95.20195471476842 C 0.0 **** -0.24
24477 H 6.234628623406257 53.20766619288692 94.90247145110038 H 0.0 **** 0.06
24478 H 4.826181643775792 54.25568280255429 94.60428239666334 H 0.0 **** 0.06
24479 H 5.190361770126762 53.701411837383944 96.25682859636026 H 0.0 **** 0.06
24480 H 4.588687194101839 52.54686063678035 95.04292063873419 H 0.0 **** 0.06
24481 C 104.72131652012442 67.64133498284036 64.397841929124 C 0.0 **** -0.24
24482 H 105.1322374201387 68.22674253106487 65.21997982286997 H 0.0 **** 0.06
24483 H 105.18392518566566 67.95435977487398 63.46188390164187 H 0.0 **** 0.06
24484 H 103.64438097192613 67.79928921887694 64.34286921774724 H 0.0 **** 0.06
24485 H 104.92544739796489 66.58390922899554 64.56873118513077 H 0.0 **** 0.06
24486 C 1.0882270748682288 11.982526621829408 92.73579705654731 C 0.0 **** -0.24
24487 H 0.2503650826913031 11.784377561331581 93.40513555339547 H 0.0 **** 0.06
24488 H 0.9763807550162369 12.975092084890804 92.29853286416702 H 0.0 **** 0.06
24489 H 1.1037671549820232 11.235126580413223 91.94250176539572 H 0.0 **** 0.06
24490 H 2.020271803697483 11.934641435059675 93.29895100189032 H 0.0 **** 0.06
24491 C 9.93509701045133 52.61752644292601 77.86558632322887 C 0.0 **** -0.24
24492 H 9.871719138728508 53.57719941351224 77.35349968758739 H 0.0 **** 0.06
24493 H 9.041738324847358 52.03026869729246 77.64913213207251 H 0.0 **** 0.06
24494 H 10.010233389382677 52.78335354225648 78.9400953319979 H 0.0 **** 0.06
24495 H 10.817122691066885 52.07826665788098 77.51873280402619 H 0.0 **** 0.06
24496 C 25.68852340448674 70.62949569252845 27.14550231459721 C 0.0 **** -0.24
24497 H 26.10482502775613 71.23958085459913 26.344682284269116 H 0.0 **** 0.06
24498 H 25.3382907075322 71.27544333168024 27.950685178106312 H 0.0 **** 0.06
24499 H 26.457397085944663 69.95726063297826 27.52732171716349 H 0.0 **** 0.06
24500 H 24.8537618355405 70.04397596808928 26.759273698618827 H 0.0 **** 0.06
24501 C 42.59144028422608 19.61395201809971 62.70729171320096 C 0.0 **** -0.24
24502 H 43.50716343891861 19.531406939612097 62.121783259124754 H 0.0 **** 0.06
24503 H 42.5702181781532 20.57966625319993 63.21332770166228 H 0.0 **** 0.06
24504 H 42.559598810482925 18.814604581157937 63.446700569422916 H 0.0 **** 0.06
24505 H 41.729549308167805 19.53215682683411 62.045280981499616 H 0.0 **** 0.06
24506 C 101.54843734844735 69.0171341186109 54.17077580895403 C 0.0 **** -0.24
24507 H 100.7669291841811 69.7769623501699 54.152588019221525 H 0.0 **** 0.06
24508 H 102.17973573700112 69.16523054261626 55.047240043025226 H 0.0 **** 0.06
24509 H 102.15370762654504 69.0974986406793 53.267777375084336 H 0.0 **** 0.06
24510 H 101.09192080160949 68.0273165327981 54.21476013028422 H 0.0 **** 0.06
24511 C 12.791316697216757 0.7940022394338939 83.36638431893721 C 0.0 **** -0.24
24512 H 13.384973119637664 1.1783377992641562 82.53582603971736 H 0.0 **** 0.06
24513 H 11.83412755290233 0.43283029639061965 82.99070828087744 H 0.0 **** 0.06
24514 H 12.621328182987526 1.5905148890966814 84.09015444055277 H 0.0 **** 0.06
24515 H 13.327060015893736 -0.024719361941322404 83.84657881929763 H 0.0 **** 0.06
24516 C 85.5523970276767 87.57174672683058 66.62566260533654 C 0.0 **** -0.24
24517 H 85.07094571463568 88.45250735524806 66.20018627976322 H 0.0 **** 0.06
24518 H 85.55644041986434 87.65042788974327 67.71371717946073 H 0.0 **** 0.06
24519 H 86.57776001028512 87.50697229587283 66.26207665739616 H 0.0 **** 0.06
24520 H 85.00416007152683 86.67771447799447 66.32790207964126 H 0.0 **** 0.06
24521 C 89.37144892387468 55.71953867491888 24.688648325063156 C 0.0 **** -0.24
24522 H 90.23356229037807 55.62346500280836 25.348784017144425 H 0.0 **** 0.06
24523 H 88.74050553099407 54.83552918022691 24.78365571690884 H 0.0 **** 0.06
24524 H 89.71287477765057 55.81312949121625 23.657240583643897 H 0.0 **** 0.06
24525 H 88.80032432687297 56.60660954481252 24.96368783050545 H 0.0 **** 0.06
24526 C 43.65097970073823 26.33909940068031 99.06575303459884 C 0.0 **** -0.24
24527 H 44.61100744443327 26.775093058715413 98.79010294049392 H 0.0 **** 0.06
24528 H 43.35496761382295 26.706142434705896 100.04955641610061 H 0.0 **** 0.06
24529 H 43.740307768943296 25.25361998677488 99.09378187896064 H 0.0 **** 0.06
24530 H 42.89884802954194 26.623347740290967 98.33069827667444 H 0.0 **** 0.06
24531 C 110.01321222650094 71.28209053159355 25.7419200387918 C 0.0 **** -0.24
24532 H 110.64393703278904 71.15647516297366 26.621512949270638 H 0.0 **** 0.06
24533 H 109.87785485502587 70.31881745055995 25.251070736843154 H 0.0 **** 0.06
24534 H 110.48889268742482 71.97893770081248 25.051023585553402 H 0.0 **** 0.06
24535 H 109.04286342754239 71.67622329743585 26.044443293909275 H 0.0 **** 0.06
24536 C 82.46561789714127 62.923166391075085 45.271225977787374 C 0.0 **** -0.24
24537 H 81.9887014980302 62.02613190495039 45.66537896748091 H 0.0 **** 0.06
24538 H 83.09273273135972 62.65693605646881 44.4206696304214 H 0.0 **** 0.06
24539 H 83.07972879187531 63.378708016326215 46.048772391219316 H 0.0 **** 0.06
24540 H 81.70042491739144 63.63044795914942 44.95232444600473 H 0.0 **** 0.06
24541 C 13.294457495241218 20.192071480158575 9.138459249541775 C 0.0 **** -0.24
24542 H 14.329176205512457 20.510466675975863 9.006268131931906 H 0.0 **** 0.06
24543 H 12.919194966482653 20.565484890837524 10.092023753668014 H 0.0 **** 0.06
24544 H 13.245291421054976 19.103385358417313 9.12913513449476 H 0.0 **** 0.06
24545 H 12.685953326763052 20.590284292464617 8.326576277724323 H 0.0 **** 0.06
24546 C 68.30350259374467 71.18763934806506 107.95421988168795 C 0.0 **** -0.24
24547 H 68.70294550023982 72.0444482905848 107.41139988972265 H 0.0 **** 0.06
24548 H 67.2148085075192 71.20473465522147 107.90982799646176 H 0.0 **** 0.06
24549 H 68.62595912843219 71.23542100938033 108.99437055899122 H 0.0 **** 0.06
24550 H 68.67236020436553 70.26681516908303 107.50132400424181 H 0.0 **** 0.06
24551 C 38.34417977142224 19.57837129963127 57.97002874319821 C 0.0 **** -0.24
24552 H 37.742013512941 19.43601647544793 58.86697277518863 H 0.0 **** 0.06
24553 H 37.7480567900055 19.33304628809384 57.09063474694142 H 0.0 **** 0.06
24554 H 39.21687153900017 18.92788369669225 58.01061940764424 H 0.0 **** 0.06
24555 H 38.66695527084092 20.61787663033823 57.9113910353845 H 0.0 **** 0.06
24556 C 45.14656551481471 97.74798455269935 55.89129040156584 C 0.0 **** -0.24
24557 H 44.50952253697176 98.55995034565612 55.54270977569331 H 0.0 **** 0.06
24558 H 45.63263856056051 97.2750037950753 55.03693507776234 H 0.0 **** 0.06
24559 H 44.539532438462686 97.01073673144532 56.417197476204535 H 0.0 **** 0.06
24560 H 45.9042509384733 98.14449433461431 56.56663808104091 H 0.0 **** 0.06
24561 C 27.067987242684126 46.740807505063316 4.952540394019195 C 0.0 **** -0.24
24562 H 27.389097758684386 46.82988171376212 3.9150518303394506 H 0.0 **** 0.06
24563 H 27.943808362959544 46.65228855272585 5.597077129914197 H 0.0 **** 0.06
24564 H 26.44303048605758 45.85487314979537 5.0641606994919925 H 0.0 **** 0.06
24565 H 26.497381162107615 47.626037130135245 5.233549197835828 H 0.0 **** 0.06
24566 C 50.86354988859563 24.694334589792987 103.94350743962315 C 0.0 **** -0.24
24567 H 51.8719808912456 25.02578482332453 103.6961284153522 H 0.0 **** 0.06
24568 H 50.869167779208176 24.21405066528135 104.92205816960632 H 0.0 **** 0.06
24569 H 50.520318571642726 23.98427304459929 103.19166001160767 H 0.0 **** 0.06
24570 H 50.19422748506178 25.554835464602462 103.96461517388121 H 0.0 **** 0.06
24571 C 47.05029268396553 15.367358569324342 31.51630616746553 C 0.0 **** -0.24
24572 H 46.1904039231913 14.982787881256037 32.06472793500245 H 0.0 **** 0.06
24573 H 46.92336412800019 15.161498348758833 30.453239157300118 H 0.0 **** 0.06
24574 H 47.9577122689427 14.882501819396154 31.874758820452428 H 0.0 **** 0.06
24575 H 47.12771458622509 16.44364756449183 31.672192694753164 H 0.0 **** 0.06
24576 C 63.462510387914676 17.058942754845475 40.87930037204359 C 0.0 **** -0.24
24577 H 63.82055373177275 16.371924121764977 41.64647057841273 H 0.0 **** 0.06
24578 H 64.31058405009861 17.581490817556656 40.43539004353681 H 0.0 **** 0.06
24579 H 62.78377974802709 17.78339168173538 41.328784714589005 H 0.0 **** 0.06
24580 H 62.93627453990405 16.498443624760853 40.10719270756522 H 0.0 **** 0.06
24581 C 97.96488350889808 63.169701706575566 88.64690407722661 C 0.0 **** -0.24
24582 H 97.54079743879913 62.9470112833266 89.62639616481172 H 0.0 **** 0.06
24583 H 97.15914349179081 63.34297974683854 87.93353777654501 H 0.0 **** 0.06
24584 H 98.57178234904333 62.32719150193839 88.3137747688628 H 0.0 **** 0.06
24585 H 98.58803634388241 64.06138467949015 88.71611937314799 H 0.0 **** 0.06
24586 C 110.58361390006587 87.23848885290055 6.252544770096563 C 0.0 **** -0.24
24587 H 110.36923939576974 86.94447888392351 7.280773596659799 H 0.0 **** 0.06
24588 H 110.59356423286836 86.35371022600772 5.616818057835019 H 0.0 **** 0.06
24589 H 111.55701701220148 87.72777819237957 6.211434178483103 H 0.0 **** 0.06
24590 H 109.81551240158645 87.9290838946163 5.904320257528582 H 0.0 **** 0.06
24591 C 0.7338126570614456 14.439902999880928 78.63091904189606 C 0.0 **** -0.24
24592 H -0.07511062466906449 14.252592931358834 77.92378973036296 H 0.0 **** 0.06
24593 H 1.6846524239687826 14.454288872333336 78.09829768445348 H 0.0 **** 0.06
24594 H 0.7504063665845795 13.649705107693364 79.38155388900289 H 0.0 **** 0.06
24595 H 0.5748930340827298 15.401397736617923 79.11775791454863 H 0.0 **** 0.06
24596 C 84.85244699875953 38.3236772649952 18.893126834643112 C 0.0 **** -0.24
24597 H 84.71856358285532 39.30505501905682 19.34838684378687 H 0.0 **** 0.06
24598 H 85.0339792901754 37.584247612653655 19.672598134390427 H 0.0 **** 0.06
24599 H 85.70377880800405 38.352551262090984 18.213409871400387 H 0.0 **** 0.06
24600 H 83.95266081503419 38.0546645642719 18.339150516615405 H 0.0 **** 0.06
24601 C 74.86588724244353 10.748604194644031 93.18510791896583 C 0.0 **** -0.24
24602 H 75.72456176342712 10.087913695514036 93.30754524770427 H 0.0 **** 0.06
24603 H 74.04253680745738 10.193641656300045 92.73594497458066 H 0.0 **** 0.06
24604 H 75.1397102164407 11.582053994467305 92.5379826171419 H 0.0 **** 0.06
24605 H 74.55954149695127 11.129359280384826 94.15919547092196 H 0.0 **** 0.06
24606 C 34.61773743141188 30.393718900765542 107.10298664573766 C 0.0 **** -0.24
24607 H 35.68369776346522 30.612443793984077 107.03187562713535 H 0.0 **** 0.06
24608 H 34.12430408929019 31.176114349674165 107.67968902594227 H 0.0 **** 0.06
24609 H 34.47641899629819 29.433221249595917 107.59764010912613 H 0.0 **** 0.06
24610 H 34.18836107256807 30.353375506046987 106.10149070008471 H 0.0 **** 0.06
24611 C 40.00358142724093 88.80893279723182 34.2821692436068 C 0.0 **** -0.24
24612 H 39.113702312324875 88.28208505218203 33.93742099296048 H 0.0 **** 0.06
24613 H 40.89310313148491 88.24614793590649 33.9981884425286 H 0.0 **** 0.06
24614 H 39.96840218785775 88.90857783294325 35.367765438957235 H 0.0 **** 0.06
24615 H 40.03877700095376 89.79898149740137 33.828282097063266 H 0.0 **** 0.06
24616 C 84.84265865931349 25.3198150836904 17.93306330937573 C 0.0 **** -0.24
24617 H 84.87952969191633 24.290116750123502 18.29013984576154 H 0.0 **** 0.06
24618 H 85.83389423925223 25.767031730545852 18.012442559128246 H 0.0 **** 0.06
24619 H 84.1371911047234 25.88872697801264 18.53797857264198 H 0.0 **** 0.06
24620 H 84.521300195138 25.33155921916571 16.89185751068959 H 0.0 **** 0.06
24621 C 95.2324362179371 2.243057127326196 63.672594362684265 C 0.0 **** -0.24
24622 H 95.39630951324219 1.551915928512173 64.49959807273275 H 0.0 **** 0.06
24623 H 96.02535698937763 2.1213582326527245 62.93541683736683 H 0.0 **** 0.06
24624 H 95.23750153297017 3.2666087647113784 64.04870361838519 H 0.0 **** 0.06
24625 H 94.26889100793579 2.031661982817212 63.2090445303312 H 0.0 **** 0.06
24626 C 7.391678418698012 39.458768924553766 6.039068313815761 C 0.0 **** -0.24
24627 H 6.494747929760534 39.9459528323932 5.656036602302123 H 0.0 **** 0.06
24628 H 7.153287231484793 38.43583293452764 6.329752532528744 H 0.0 **** 0.06
24629 H 7.759812398418928 40.00717720897575 6.906860639456113 H 0.0 **** 0.06
24630 H 8.15833576530792 39.44822953430324 5.264111423060456 H 0.0 **** 0.06
24631 C 35.2482996832868 85.39533927233408 32.32526944419749 C 0.0 **** -0.24
24632 H 36.09402960005809 85.38305644851208 33.01189504062455 H 0.0 **** 0.06
24633 H 35.44911270020643 84.7236238058504 31.48983885764511 H 0.0 **** 0.06
24634 H 35.09812450457838 86.40760451421298 31.950143838516794 H 0.0 **** 0.06
24635 H 34.350342228921534 85.06549976469347 32.849213256424264 H 0.0 **** 0.06
24636 C 37.622391624088436 69.3691937461208 41.88277238962516 C 0.0 **** -0.24
24637 H 37.457700446754245 70.3247713909201 41.38409719053183 H 0.0 **** 0.06
24638 H 36.82138138536192 68.67859427472648 41.61713212538007 H 0.0 **** 0.06
24639 H 37.63103227243093 69.51950687386613 42.96171862035402 H 0.0 **** 0.06
24640 H 38.578928239987164 68.95466011987841 41.565286513462524 H 0.0 **** 0.06
24641 C 58.609241477864046 101.62251452705861 73.85972494905548 C 0.0 **** -0.24
24642 H 59.3468898706148 100.83856411878351 73.68695816866327 H 0.0 **** 0.06
24643 H 58.47983989886184 102.20654909466158 72.94876799841228 H 0.0 **** 0.06
24644 H 58.95354988460399 102.27433121992408 74.66308818389383 H 0.0 **** 0.06
24645 H 57.657225637917136 101.17104028628628 74.1408114766599 H 0.0 **** 0.06
24646 C 13.969710536568755 22.95385020810093 48.235888095967624 C 0.0 **** -0.24
24647 H 13.83400077064735 23.797680453847818 47.55945176927355 H 0.0 **** 0.06
24648 H 14.65280422325398 23.237488245135552 49.037235877778954 H 0.0 **** 0.06
24649 H 14.385193716675417 22.11038658103888 47.6857131232174 H 0.0 **** 0.06
24650 H 13.007671630556757 22.67081237421027 48.66269419258981 H 0.0 **** 0.06
24651 C 17.231144568585567 97.75951587205441 13.195998782561944 C 0.0 **** -0.24
24652 H 17.437017085557002 98.01960844473237 12.156977046815697 H 0.0 **** 0.06
24653 H 18.059292720174014 97.17073799637112 13.593183993282835 H 0.0 **** 0.06
24654 H 16.312498394889538 97.17626422699512 13.248879751698752 H 0.0 **** 0.06
24655 H 17.118614505766335 98.67079526298618 13.783089552057476 H 0.0 **** 0.06
24656 C 110.40632762118818 95.73202261217094 98.29299853236773 C 0.0 **** -0.24
24657 H 110.5000032203167 96.71718617599369 98.75061452664073 H 0.0 **** 0.06
24658 H 109.95124013860541 95.83185499128903 97.3075511137593 H 0.0 **** 0.06
24659 H 109.77944037491761 95.09820752240316 98.92062228134876 H 0.0 **** 0.06
24660 H 111.39391876571898 95.28213675845099 98.19516121029159 H 0.0 **** 0.06
24661 C 98.20133819616609 6.940903702858009 41.78901387831764 C 0.0 **** -0.24
24662 H 97.1963099581149 6.519951853500865 41.742693476168775 H 0.0 **** 0.06
24663 H 98.9172672706481 6.21154969786366 41.407795942240526 H 0.0 **** 0.06
24664 H 98.44500969371914 7.1832470009255704 42.8228618366203 H 0.0 **** 0.06
24665 H 98.24425911294942 7.845044987849125 41.18304359556343 H 0.0 **** 0.06
24666 C 68.51502180142307 73.25787347176839 41.11769127975873 C 0.0 **** -0.24
24667 H 69.02863669400125 74.05275892620527 41.657681598654165 H 0.0 **** 0.06
24668 H 69.19608118650757 72.41921352803628 40.97230436158395 H 0.0 **** 0.06
24669 H 68.18566116658332 73.63151818946481 40.14739029405439 H 0.0 **** 0.06
24670 H 67.64927219379922 72.92803170923129 41.69248932337928 H 0.0 **** 0.06
24671 C 98.28336698428399 22.925708945760555 89.60985971599673 C 0.0 **** -0.24
24672 H 98.01456040317146 23.739834261341432 90.28346921687307 H 0.0 **** 0.06
24673 H 99.24394206247291 22.50841998491055 89.91030459244111 H 0.0 **** 0.06
24674 H 98.35429531475619 23.306636555236363 88.59084397444092 H 0.0 **** 0.06
24675 H 97.518812241229 22.149160672374947 89.65585575286809 H 0.0 **** 0.06
24676 C 33.39116845000183 76.85621807980752 50.3018606237365 C 0.0 **** -0.24
24677 H 34.12812113549711 76.27701452109 50.858972597481625 H 0.0 **** 0.06
24678 H 32.92578447705034 77.58566096732619 50.965233516639046 H 0.0 **** 0.06
24679 H 32.628155798090205 76.18665371894326 49.904874488615974 H 0.0 **** 0.06
24680 H 33.883861686368505 77.37437301342874 49.47862699120509 H 0.0 **** 0.06
24681 C 72.08915772613811 104.26041132612002 96.78586298768491 C 0.0 **** -0.24
24682 H 71.97837656632248 105.33202721524623 96.62573004060391 H 0.0 **** 0.06
24683 H 71.33820495996493 103.72673477356864 96.2034533346614 H 0.0 **** 0.06
24684 H 71.9568145990625 104.03548226986959 97.8439305297779 H 0.0 **** 0.06
24685 H 73.08454749010944 103.94690954343855 96.47015012001157 H 0.0 **** 0.06
24686 C 44.90260190678171 36.00648849237594 17.92472759366418 C 0.0 **** -0.24
24687 H 45.64083229325894 36.60060187016785 18.462762805448744 H 0.0 **** 0.06
24688 H 44.94725249413074 34.97290565431245 18.26922377222593 H 0.0 **** 0.06
24689 H 45.11531284968072 36.04283074165742 16.856751011937824 H 0.0 **** 0.06
24690 H 43.906621874472705 36.4088314232303 18.1106568524358 H 0.0 **** 0.06
24691 C 108.57044837215672 82.4071484544518 14.529084824143084 C 0.0 **** -0.24
24692 H 108.87657905584445 81.92665870649128 15.45850526387406 H 0.0 **** 0.06
24693 H 108.97581716629378 81.85282338500775 13.682280467263439 H 0.0 **** 0.06
24694 H 108.94817762460433 83.42960511171137 14.508572668446178 H 0.0 **** 0.06
24695 H 107.48258874887559 82.42088231806281 14.468475315834269 H 0.0 **** 0.06
24696 C 89.3002405396661 96.04880656591712 2.344870679666765 C 0.0 **** -0.24
24697 H 88.54392247103709 95.87811368404854 3.1103068937275307 H 0.0 **** 0.06
24698 H 90.28504560994881 95.81419476073047 2.749718849412421 H 0.0 **** 0.06
24699 H 89.27360696167916 97.09349664404083 2.0347335592110705 H 0.0 **** 0.06
24700 H 89.09844635471148 95.41031841422901 1.4851610263556783 H 0.0 **** 0.06
24701 C 32.383895027414695 61.029087302755656 79.26727910273598 C 0.0 **** -0.24
24702 H 32.74586433983046 61.26990826875641 78.26702849306818 H 0.0 **** 0.06
24703 H 32.51289671181519 59.962653722842276 79.45289357018112 H 0.0 **** 0.06
24704 H 31.327495901716475 61.28689134623767 79.34251668764307 H 0.0 **** 0.06
24705 H 32.951161060442445 61.597749688641215 80.00424998414786 H 0.0 **** 0.06
24706 C 99.79167410806645 62.93195394476095 28.516117597529536 C 0.0 **** -0.24
24707 H 100.66400573205857 63.58618155749548 28.52216293182127 H 0.0 **** 0.06
24708 H 99.49336614515641 62.71399457842668 29.541630059206895 H 0.0 **** 0.06
24709 H 100.03980726043572 62.00168690204768 28.004172339131564 H 0.0 **** 0.06
24710 H 98.97175076406971 63.42584087091842 27.995505359539735 H 0.0 **** 0.06
24711 C 26.72907065524656 14.190942936215436 79.14307167766216 C 0.0 **** -0.24
24712 H 26.738384693875155 15.198067931493227 79.56004437695799 H 0.0 **** 0.06
24713 H 27.677719923669613 13.996692140182034 78.64395559963972 H 0.0 **** 0.06
24714 H 25.91454207252292 14.103352072943977 78.42480312976568 H 0.0 **** 0.06
24715 H 26.585138476302895 13.467219534357724 79.94579001853279 H 0.0 **** 0.06
24716 C 18.740132601411347 47.67674612094678 107.03035826205169 C 0.0 **** -0.24
24717 H 18.497254541946305 46.62590598182241 107.18839303169436 H 0.0 **** 0.06
24718 H 17.85935993508413 48.28779829121414 107.2306993375569 H 0.0 **** 0.06
24719 H 19.058108886724213 47.82435963849713 105.99870424143143 H 0.0 **** 0.06
24720 H 19.54543006676741 47.968549077704274 107.7044849254933 H 0.0 **** 0.06
24721 C 19.420770545137827 69.44017445462306 67.55363528085206 C 0.0 **** -0.24
24722 H 19.835905845353864 68.52809907978927 67.12301595614582 H 0.0 **** 0.06
24723 H 20.21008669442901 70.18615649657053 67.65236521235539 H 0.0 **** 0.06
24724 H 19.003319518778852 69.22056826213789 68.53638881168376 H 0.0 **** 0.06
24725 H 18.636680927730907 69.82519196433256 66.90252110908494 H 0.0 **** 0.06
24726 C 36.47378210669435 108.89835617346967 72.62097449048859 C 0.0 **** -0.24
24727 H 37.31109693495602 109.10960711455272 73.28617645665508 H 0.0 **** 0.06
24728 H 36.08235410474515 109.83369373619166 72.22025947692215 H 0.0 **** 0.06
24729 H 35.689249277924034 108.38372277149932 73.1761199265873 H 0.0 **** 0.06
24730 H 36.81254299283851 108.26448583583993 71.80077741187716 H 0.0 **** 0.06
24731 C 66.11252593922946 30.824110576592744 26.695306934653985 C 0.0 **** -0.24
24732 H 66.34277067604475 31.889779376802316 26.695666628193408 H 0.0 **** 0.06
24733 H 66.25020739673076 30.423273145194244 25.690601032505896 H 0.0 **** 0.06
24734 H 65.07888157910408 30.676309426935838 27.00771032231097 H 0.0 **** 0.06
24735 H 66.77927083340965 30.309051707914527 27.3870050976019 H 0.0 **** 0.06
24736 C 64.46492236116552 9.220794815615562 50.311398440891814 C 0.0 **** -0.24
24737 H 63.9197787428953 8.745130172273946 51.126832882065834 H 0.0 **** 0.06
24738 H 64.26749494676505 10.292160549544946 50.318784194326305 H 0.0 **** 0.06
24739 H 64.13906514335065 8.797246850979164 49.36114955272179 H 0.0 **** 0.06
24740 H 65.53301715594985 9.046215493748903 50.438878925765756 H 0.0 **** 0.06
24741 C 44.257150596834634 30.869389191886 91.28649956522531 C 0.0 **** -0.24
24742 H 43.38497533010785 31.507787444162716 91.4273814545557 H 0.0 **** 0.06
24743 H 44.92899800130027 30.98080829280292 92.13780186245663 H 0.0 **** 0.06
24744 H 44.77653151927527 31.159279859391347 90.37310721311894 H 0.0 **** 0.06
24745 H 43.93774238410205 29.830351857848427 91.20890110691388 H 0.0 **** 0.06
24746 C 101.24055249785931 68.00276504841399 86.20583207861665 C 0.0 **** -0.24
24747 H 100.40750664516264 68.19062322196399 85.52871714927971 H 0.0 **** 0.06
24748 H 101.75814730514514 67.09310910949604 85.89967775374595 H 0.0 **** 0.06
24749 H 100.86359325924741 67.88247445636267 87.22155135345437 H 0.0 **** 0.06
24750 H 101.93203828572561 68.84418707970158 86.17254455162987 H 0.0 **** 0.06
24751 C 30.77909152504722 95.83331009358967 88.14870738489607 C 0.0 **** -0.24
24752 H 31.731509229984255 95.55930400844058 87.69284336203125 H 0.0 **** 0.06
24753 H 30.016021792983253 95.91505637970099 87.374333517729 H 0.0 **** 0.06
24754 H 30.883739016860574 96.79023117375473 88.6604736433218 H 0.0 **** 0.06
24755 H 30.487597777706156 95.06647195474675 88.8672360591339 H 0.0 **** 0.06
24756 C 74.74954237872026 100.69293160898052 99.09860275414843 C 0.0 **** -0.24
24757 H 74.46232591516764 99.64106325209669 99.09740449616953 H 0.0 **** 0.06
24758 H 75.5098985268979 100.86020313927706 99.86007263998073 H 0.0 **** 0.06
24759 H 73.87543255538202 101.30796607031859 99.3150500093962 H 0.0 **** 0.06
24760 H 75.14896370992855 100.96041055016676 98.12038021151636 H 0.0 **** 0.06
24761 C 91.92500155034134 24.900140463866336 17.301823830841684 C 0.0 **** -0.24
24762 H 92.97562823543433 24.816448910704338 17.576401559947982 H 0.0 **** 0.06
24763 H 91.61441005675039 23.997106749579075 16.775355581852978 H 0.0 **** 0.06
24764 H 91.78638095917006 25.765192146951037 16.65263457258665 H 0.0 **** 0.06
24765 H 91.3224909688426 25.021816187337038 18.20200978502622 H 0.0 **** 0.06
24766 C 58.48135076699657 29.267414581967785 27.98176518110352 C 0.0 **** -0.24
24767 H 58.033722390615424 28.350569085752397 28.36557882589151 H 0.0 **** 0.06
24768 H 57.85870361801673 29.668870220905774 27.183386488240316 H 0.0 **** 0.06
24769 H 59.47634340777961 29.049547146115685 27.59329102320163 H 0.0 **** 0.06
24770 H 58.55725969851392 29.99855159111283 28.786832419021067 H 0.0 **** 0.06
24771 C 88.12870771026826 4.81130496752715 3.0755859934620133 C 0.0 **** -0.24
24772 H 88.77354666773894 4.037908552966542 3.4925169481557248 H 0.0 **** 0.06
24773 H 88.74311527084038 5.6056028644729 2.65010626493698 H 0.0 **** 0.06
24774 H 87.4983609616446 5.2222959492955 3.8647267705086676 H 0.0 **** 0.06
24775 H 87.50121991573522 4.379640200378191 2.296712923747833 H 0.0 **** 0.06
24776 C 45.630075868061056 67.61121232924722 82.37876722188719 C 0.0 **** -0.24
24777 H 44.967945894675736 68.20719972798531 83.00744574740183 H 0.0 **** 0.06
24778 H 45.40395801508844 67.80154314828815 81.33018028381358 H 0.0 **** 0.06
24779 H 45.48291589561554 66.55326197925046 82.59748339384605 H 0.0 **** 0.06
24780 H 46.66606783277622 67.88284664579396 82.58233833765843 H 0.0 **** 0.06
24781 C 44.823773512015336 11.372412177346689 76.40334647299952 C 0.0 **** -0.24
24782 H 44.12800600285759 12.204083080903672 76.2935840076847 H 0.0 **** 0.06
24783 H 45.675564350976856 11.522590006229091 75.73944003615686 H 0.0 **** 0.06
24784 H 44.320521723439285 10.44069266386496 76.14416094233049 H 0.0 **** 0.06
24785 H 45.17186835142874 11.323116126129406 77.43495376231658 H 0.0 **** 0.06
24786 C 54.911350192423484 2.620583737687525 14.490674288211661 C 0.0 **** -0.24
24787 H 54.65230606275287 3.6209915609797463 14.143161573285614 H 0.0 **** 0.06
24788 H 54.39752123032124 2.4182228815570284 15.430869829249598 H 0.0 **** 0.06
24789 H 55.98910626318019 2.5577599900794894 14.644257523798132 H 0.0 **** 0.06
24790 H 54.60788368008003 1.8863379053480003 13.744212044652347 H 0.0 **** 0.06
24791 C 30.11472210863724 68.2669678985755 87.60195482101528 C 0.0 **** -0.24
24792 H 29.125972790749017 68.24397415486138 88.05933515302833 H 0.0 **** 0.06
24793 H 30.19330367981776 69.13592954386242 86.94856035205981 H 0.0 **** 0.06
24794 H 30.265332912260448 67.35859188581601 87.01713841866942 H 0.0 **** 0.06
24795 H 30.87458635686498 68.3271792335131 88.38103032757483 H 0.0 **** 0.06
24796 C 85.38394046253063 12.221597742004946 16.714331281955168 C 0.0 **** -0.24
24797 H 85.44178444890292 11.935028804681764 17.76506584405317 H 0.0 **** 0.06
24798 H 86.20656511912648 11.761972183731444 16.166708473793534 H 0.0 **** 0.06
24799 H 85.45301870504613 13.306521735524399 16.6300881930958 H 0.0 **** 0.06
24800 H 84.43518160654281 11.884376887023194 16.29793313473641 H 0.0 **** 0.06
24801 C 40.29995724564128 15.984804258564694 89.73868658083343 C 0.0 **** -0.24
24802 H 41.071488187643325 16.75316755331899 89.69003907444272 H 0.0 **** 0.06
24803 H 39.98578531021809 15.851604383923132 90.77425046451624 H 0.0 **** 0.06
24804 H 40.69809532994938 15.044750121086466 89.35592680329519 H 0.0 **** 0.06
24805 H 39.44436051473329 16.289536268437516 89.13593176007511 H 0.0 **** 0.06
24806 C 16.239663288209275 80.57505057050071 54.380382929022375 C 0.0 **** -0.24
24807 H 15.271033439117787 80.39532954750436 53.91324768723541 H 0.0 **** 0.06
24808 H 16.325216298553027 81.62966266410933 54.64379854550293 H 0.0 **** 0.06
24809 H 17.03457918309884 80.30968542581817 53.68334362209285 H 0.0 **** 0.06
24810 H 16.32739733098869 79.96770689971618 55.28137801658437 H 0.0 **** 0.06
24811 C 15.74247966123626 96.95158614062404 105.35617862636639 C 0.0 **** -0.24
24812 H 15.114866324519113 97.2966686800089 106.17767802335868 H 0.0 **** 0.06
24813 H 15.916046110709942 97.77345668924184 104.66159082197333 H 0.0 **** 0.06
24814 H 15.241118507952024 96.13518433172547 104.83520466173042 H 0.0 **** 0.06
24815 H 16.696022831319283 96.59968736364979 105.75108171796336 H 0.0 **** 0.06
24816 C 67.12940183472853 11.181206442356654 64.38562444423167 C 0.0 **** -0.24
24817 H 68.01550570274713 11.680287101716374 63.99337814006145 H 0.0 **** 0.06
24818 H 66.37080402423221 11.92540910964658 64.6283433961832 H 0.0 **** 0.06
24819 H 67.39491065650587 10.625846204181386 65.28573157895917 H 0.0 **** 0.06
24820 H 66.73852400203 10.493086647279796 63.63567282549555 H 0.0 **** 0.06
24821 C 39.01255268822757 51.2799791910411 71.18735120401651 C 0.0 **** -0.24
24822 H 39.707526214322854 51.959074134855065 71.68196784582385 H 0.0 **** 0.06
24823 H 38.704556763655674 50.503122777343364 71.88661675899348 H 0.0 **** 0.06
24824 H 39.50277543596431 50.822459905439366 70.3276375742371 H 0.0 **** 0.06
24825 H 38.137397765505995 51.8374341782675 70.8528836401722 H 0.0 **** 0.06
24826 C 20.038860197012923 56.27446548257556 84.46414756073753 C 0.0 **** -0.24
24827 H 19.245082501012376 56.898574848511 84.05262812892109 H 0.0 **** 0.06
24828 H 19.77245471594179 55.96869853032943 85.47609639473383 H 0.0 **** 0.06
24829 H 20.96906365577206 56.84171666646887 84.48881189240929 H 0.0 **** 0.06
24830 H 20.16788323668743 55.39187236489743 83.83876679186797 H 0.0 **** 0.06
24831 C 13.732804682612482 40.95466427304558 7.337015946140127 C 0.0 **** -0.24
24832 H 14.062573168698414 40.24878827571996 8.098749174174145 H 0.0 **** 0.06
24833 H 12.848743215086113 40.56057151621741 6.834920341461668 H 0.0 **** 0.06
24834 H 14.53024334208364 41.10000461582575 6.607540412327239 H 0.0 **** 0.06
24835 H 13.48997475981285 41.908792193568274 7.805569369113073 H 0.0 **** 0.06
24836 C 50.98845577427414 15.321752391965674 45.93586951713931 C 0.0 **** -0.24
24837 H 51.9267801896377 14.766415474876084 45.91668650367223 H 0.0 **** 0.06
24838 H 51.16168157225795 16.313377708496603 46.355395258916545 H 0.0 **** 0.06
24839 H 50.263748018541264 14.788056137015303 46.54975276893921 H 0.0 **** 0.06
24840 H 50.603414711919555 15.418253987368843 44.92067714211683 H 0.0 **** 0.06
24841 C 83.22657301623502 103.59387508286537 108.82041954467623 C 0.0 **** -0.24
24842 H 82.2843695075151 104.04881525286586 108.51473061007384 H 0.0 **** 0.06
24843 H 83.69886280023911 103.12196265398367 107.95818650970602 H 0.0 **** 0.06
24844 H 83.03454772188957 102.84218922716218 109.58658625851143 H 0.0 **** 0.06
24845 H 83.88719643390576 104.36145702886188 109.22250827452696 H 0.0 **** 0.06
24846 C 21.830265221449366 2.0636839825270386 91.31163328949998 C 0.0 **** -0.24
24847 H 22.275757146963606 1.082680911551904 91.14429026578057 H 0.0 **** 0.06
24848 H 22.612212626950775 2.776777080765669 91.57438462491757 H 0.0 **** 0.06
24849 H 21.10721403346874 2.0004264205394975 92.12434304822972 H 0.0 **** 0.06
24850 H 21.328120396694665 2.393457288785328 90.40177620991328 H 0.0 **** 0.06
24851 C 13.27309792834825 63.586554123754695 3.3609428958553735 C 0.0 **** -0.24
24852 H 13.583362160580066 63.2599457797686 4.353249704682753 H 0.0 **** 0.06
24853 H 13.039761710379878 64.65200627717005 3.3854328346851617 H 0.0 **** 0.06
24854 H 12.389480577835286 63.02767552575051 3.0534094794601856 H 0.0 **** 0.06
24855 H 14.081061160373793 63.40784853662285 2.6503413614774445 H 0.0 **** 0.06
24856 C 53.23661123773664 34.48877314854141 61.21029592613087 C 0.0 **** -0.24
24857 H 52.63594530197173 33.60152974884255 61.011652318707775 H 0.0 **** 0.06
24858 H 52.78725021542499 35.3506306991346 60.71578402093428 H 0.0 **** 0.06
24859 H 54.24644189825477 34.33674855481148 60.8282339823578 H 0.0 **** 0.06
24860 H 53.27823306535106 34.66546321928935 62.28484324899398 H 0.0 **** 0.06
24861 C 26.819879764680195 4.177776221620789 103.36567607695122 C 0.0 **** -0.24
24862 H 26.257213741351222 4.4325705162776785 104.26415900927964 H 0.0 **** 0.06
24863 H 27.86125622572399 3.990200491265071 103.63105174022344 H 0.0 **** 0.06
24864 H 26.768921860325463 5.0056619301354885 102.65903526387723 H 0.0 **** 0.06
24865 H 26.39325539489073 3.284144141950705 102.91170800182446 H 0.0 **** 0.06
24866 C 44.14276449961312 109.87553914309936 74.53581754497613 C 0.0 **** -0.24
24867 H 44.46186204377415 110.32260290003879 73.5938841461548 H 0.0 **** 0.06
24868 H 43.05971840655599 109.95328173721637 74.6251087876243 H 0.0 **** 0.06
24869 H 44.614720457164026 110.4032269164345 75.3646594620326 H 0.0 **** 0.06
24870 H 44.436043110916444 108.82664093891339 74.55806331786331 H 0.0 **** 0.06
24871 C 77.28548595468783 12.774176438594779 14.275247206127887 C 0.0 **** -0.24
24872 H 77.98463922700648 12.183009679771317 14.865239757340717 H 0.0 **** 0.06
24873 H 77.38511767960392 12.510417023013886 13.222371990914553 H 0.0 **** 0.06
24874 H 77.50584946031631 13.834225194079153 14.406279110819938 H 0.0 **** 0.06
24875 H 76.26760392620065 12.570576208122205 14.60681744379319 H 0.0 **** 0.06
24876 C 58.11901717492421 35.76477185424762 69.71639744932764 C 0.0 **** -0.24
24877 H 58.766292692100706 35.4955490145261 68.88162370223534 H 0.0 **** 0.06
24878 H 58.72615274677773 36.12743566299049 70.54532690879955 H 0.0 **** 0.06
24879 H 57.554022926542615 34.88833061962372 70.0345326677866 H 0.0 **** 0.06
24880 H 57.42820958590124 36.547031036229555 69.40175768553502 H 0.0 **** 0.06
24881 C 105.93300955326563 7.359736684326506 33.17212866793556 C 0.0 **** -0.24
24882 H 106.81878632295528 7.545464040040187 32.56367270708136 H 0.0 **** 0.06
24883 H 106.14697272202824 7.614613695239001 34.21086794461471 H 0.0 **** 0.06
24884 H 105.66044437755468 6.306642286087424 33.10387811561424 H 0.0 **** 0.06
24885 H 105.10900740327003 7.974027323978106 32.80926341242501 H 0.0 **** 0.06
24886 C 88.83331204180232 27.90235775688049 1.1773133794845307 C 0.0 **** -0.24
24887 H 87.96908191665534 27.404352093604963 0.7372015675361183 H 0.0 **** 0.06
24888 H 89.66169886235559 27.885946631369123 0.4690749436909414 H 0.0 **** 0.06
24889 H 89.12480204129662 27.3844287964558 2.091158506054171 H 0.0 **** 0.06
24890 H 88.57637481710404 28.935148580858005 1.4121880163508536 H 0.0 **** 0.06
24891 C 22.7766855159918 18.351564506285456 98.46281927292637 C 0.0 **** -0.24
24892 H 23.127036396478047 18.68400636521711 97.48543786086677 H 0.0 **** 0.06
24893 H 21.800509908484514 18.79104190456119 98.66735416237253 H 0.0 **** 0.06
24894 H 23.48543380257445 18.667019873843465 99.22889077041043 H 0.0 **** 0.06
24895 H 22.695161060779128 17.264682771146038 98.46870002870587 H 0.0 **** 0.06
24896 C 65.37573276535369 93.00328847931357 34.42170094798843 C 0.0 **** -0.24
24897 H 65.36756215334265 93.86312424449963 35.0897535716109 H 0.0 **** 0.06
24898 H 66.38051260879422 92.58131191127435 34.38556209393124 H 0.0 **** 0.06
24899 H 65.07722813288285 93.31624326873236 33.421693466226756 H 0.0 **** 0.06
24900 H 64.67879217379254 92.25034054896656 34.79009743465831 H 0.0 **** 0.06
24901 C 108.97218259910525 81.41968562426382 102.94633872984951 C 0.0 **** -0.24
24902 H 109.10944025565001 81.49703398967495 101.86854226683792 H 0.0 **** 0.06
24903 H 109.93463913590918 81.53645803837145 103.444199489335 H 0.0 **** 0.06
24904 H 108.55173013914776 80.44408790217284 103.1906081552801 H 0.0 **** 0.06
24905 H 108.29099699246237 82.201876823546 103.2828931523317 H 0.0 **** 0.06
24906 C 9.183651119855156 19.357992415582856 26.101470007029832 C 0.0 **** -0.24
24907 H 9.16794507477995 18.281892953431793 25.930364864244154 H 0.0 **** 0.06
24908 H 9.55641991024973 19.559667450525865 27.106686620941787 H 0.0 **** 0.06
24909 H 8.174969386933427 19.756963307400923 26.00051429452344 H 0.0 **** 0.06
24910 H 9.838089084730967 19.83269833504366 25.36953692593434 H 0.0 **** 0.06
24911 C 60.954316182775585 72.06115036713018 53.3685318581754 C 0.0 **** -0.24
24912 H 60.83428447937325 72.97969424057413 53.94330511280742 H 0.0 **** 0.06
24913 H 61.73857162971635 71.45181707376597 53.81765329038768 H 0.0 **** 0.06
24914 H 61.227579122064896 72.30717053177545 52.34235147270087 H 0.0 **** 0.06
24915 H 60.01558316838924 71.50568870520368 53.37144480113332 H 0.0 **** 0.06
24916 C 68.36867761081771 89.9138307960622 88.62197438882215 C 0.0 **** -0.24
24917 H 67.59330693099264 90.31001665643856 87.96622305773718 H 0.0 **** 0.06
24918 H 69.32301494905545 89.91199292583656 88.09554244795504 H 0.0 **** 0.06
24919 H 68.11226538734991 88.89531679524782 88.91254573254513 H 0.0 **** 0.06
24920 H 68.4444981451872 90.53779191752375 89.51206396785587 H 0.0 **** 0.06
24921 C 107.66864399011747 75.40776752528238 62.98922455663711 C 0.0 **** -0.24
24922 H 107.94702892706275 74.42282149707661 62.61438875124526 H 0.0 **** 0.06
24923 H 108.25704263993934 75.63689431106181 63.87898395748937 H 0.0 **** 0.06
24924 H 106.60852413697818 75.41325591941192 63.24305228732004 H 0.0 **** 0.06
24925 H 107.86239370767828 76.15652693924756 62.22200942828158 H 0.0 **** 0.06
24926 C 22.242173819946146 51.25631715053095 24.29118522388599 C 0.0 **** -0.24
24927 H 21.949825787720158 51.96811547086895 25.063038512990662 H 0.0 **** 0.06
24928 H 22.131438230593574 51.71868648115668 23.310067498971133 H 0.0 **** 0.06
24929 H 21.604556831369734 50.37404209492507 24.35071718456652 H 0.0 **** 0.06
24930 H 23.28141049957003 50.96533757695755 24.441070831159777 H 0.0 **** 0.06
24931 C 84.34006422957948 14.64930874943417 87.05814567726298 C 0.0 **** -0.24
24932 H 85.16734397312536 14.178886179931425 87.58732281575678 H 0.0 **** 0.06
24933 H 83.69356871525446 13.878803929473918 86.63536829092186 H 0.0 **** 0.06
24934 H 84.73058941066046 15.276799675575319 86.25668702150892 H 0.0 **** 0.06
24935 H 83.76576582135074 15.26278762936633 87.75295052432983 H 0.0 **** 0.06
24936 C 93.81129541282645 51.850478896239935 101.46409124505435 C 0.0 **** -0.24
24937 H 94.3193007156892 51.89544068379284 102.4266553765317 H 0.0 **** 0.06
24938 H 93.94865256446015 52.79411120790012 100.93587555422246 H 0.0 **** 0.06
24939 H 92.74706815491507 51.67444895583996 101.62314021111956 H 0.0 **** 0.06
24940 H 94.22948512538827 51.0363200484443 100.87073085483364 H 0.0 **** 0.06
24941 C 49.65869599876956 39.41136031500423 104.30622618421917 C 0.0 **** -0.24
24942 H 49.79511704324116 38.371344138236964 104.60326052757821 H 0.0 **** 0.06
24943 H 50.42683840270691 40.02673299859151 104.7758414499257 H 0.0 **** 0.06
24944 H 48.674194935550766 39.753329082237144 104.62374105811766 H 0.0 **** 0.06
24945 H 49.739292921528516 39.49289141304388 103.22256917420222 H 0.0 **** 0.06
24946 C 27.189707697321907 18.019274760561267 62.099430749119875 C 0.0 **** -0.24
24947 H 27.648920043052414 17.604789281656636 62.996403155277676 H 0.0 **** 0.06
24948 H 27.870430921582013 18.738957527521983 61.64211416567633 H 0.0 **** 0.06
24949 H 26.258532844595948 18.51844012549284 62.36548339485341 H 0.0 **** 0.06
24950 H 26.98222720536228 17.216112625622415 61.39276312443161 H 0.0 **** 0.06
24951 C 83.14679630122077 65.08197104190255 91.91590783378714 C 0.0 **** -0.24
24952 H 82.81073172094466 64.13396631330325 91.49357921728952 H 0.0 **** 0.06
24953 H 83.70172693562463 64.8922948226906 92.83418862281657 H 0.0 **** 0.06
24954 H 82.28155109980662 65.70792249200045 92.13522331095042 H 0.0 **** 0.06
24955 H 83.79157246943879 65.58990668526843 91.19839558314732 H 0.0 **** 0.06
24956 C 65.60163370323218 82.72832172043637 30.568794988849845 C 0.0 **** -0.24
24957 H 66.40761546510961 83.45504557434192 30.473199436453086 H 0.0 **** 0.06
24958 H 65.81123670360242 81.86781945881168 29.932672972778235 H 0.0 **** 0.06
24959 H 64.66148071199548 83.18589351154324 30.261930023746245 H 0.0 **** 0.06
24960 H 65.52622021741567 82.4031604526614 31.60701883243042 H 0.0 **** 0.06
24961 C 33.007621110077494 42.933235457899684 79.49025401065546 C 0.0 **** -0.24
24962 H 33.16005038087014 43.04002241836261 78.41623930105497 H 0.0 **** 0.06
24963 H 32.40220154120256 42.04710750812282 79.68404305763141 H 0.0 **** 0.06
24964 H 32.49416184016472 43.81494813989704 79.87427494473309 H 0.0 **** 0.06
24965 H 33.97295900535899 42.82955337722109 79.98624144237289 H 0.0 **** 0.06
24966 C 47.42692724533063 72.79454933288851 25.74070784469194 C 0.0 **** -0.24
24967 H 46.35631620596868 72.89208440200834 25.559741928192693 H 0.0 **** 0.06
24968 H 47.72817454114716 71.75965284059282 25.584653531102447 H 0.0 **** 0.06
24969 H 47.648851137377875 73.08785893538025 26.766727820004263 H 0.0 **** 0.06
24970 H 47.97152307284581 73.44069446551482 25.052945142952524 H 0.0 **** 0.06
24971 C 96.73073104967568 6.478691663605048 110.62922471602162 C 0.0 **** -0.24
24972 H 96.9048926918901 6.082026524408462 111.62925831716866 H 0.0 **** 0.06
24973 H 95.96547483319318 5.882705873577777 110.12947206020094 H 0.0 **** 0.06
24974 H 97.65648474256261 6.436241065144429 110.05458062999836 H 0.0 **** 0.06
24975 H 96.39549054266152 7.513311435459656 110.70202899505519 H 0.0 **** 0.06
24976 C 15.871315075774874 12.60129250083979 56.451545781670376 C 0.0 **** -0.24
24977 H 15.728230308008904 13.142945278499738 55.51627909579119 H 0.0 **** 0.06
24978 H 16.607991574391406 11.81014760948294 56.30406580952078 H 0.0 **** 0.06
24979 H 14.923719144045663 12.161112784041151 56.764538716441166 H 0.0 **** 0.06
24980 H 16.22380336456672 13.287858166663085 57.21986616775362 H 0.0 **** 0.06
24981 C 50.126543286629555 7.9900448439564595 109.9946836119663 C 0.0 **** -0.24
24982 H 49.13684522143359 8.259769808569516 110.36493484721122 H 0.0 **** 0.06
24983 H 50.15130089352283 8.103089415614127 108.91002476850107 H 0.0 **** 0.06
24984 H 50.34177630453263 6.954519148039983 110.2572592903001 H 0.0 **** 0.06
24985 H 50.87325534681702 8.642438540846255 110.44556853556406 H 0.0 **** 0.06
24986 C 4.520223412054378 34.846932232752636 70.79641095894468 C 0.0 **** -0.24
24987 H 5.393425406190872 34.93563378556013 71.44310336402418 H 0.0 **** 0.06
24988 H 4.839316702858241 34.840371804593076 69.75458509911573 H 0.0 **** 0.06
24989 H 3.8544768511133043 35.69307866287198 70.96831936176855 H 0.0 **** 0.06
24990 H 3.9938039705421033 33.91914717775023 71.0218111042966 H 0.0 **** 0.06
24991 C 47.02191929661996 103.72146140710868 26.252066934356264 C 0.0 **** -0.24
24992 H 47.94296478699165 103.49512523240094 25.715325050902976 H 0.0 **** 0.06
24993 H 46.42881143736764 104.4291244645314 25.672078280257836 H 0.0 **** 0.06
24994 H 47.26468009480517 104.15795980880029 27.220929708331994 H 0.0 **** 0.06
24995 H 46.452210507190145 102.80399758984989 26.39899127068324 H 0.0 **** 0.06
24996 C 84.25880576425074 86.59856897344332 14.946582614944575 C 0.0 **** -0.24
24997 H 83.79089911609891 87.46812558097753 15.406838355016987 H 0.0 **** 0.06
24998 H 83.9590886139152 85.69791315450436 15.482920648192348 H 0.0 **** 0.06
24999 H 85.34343200718041 86.70405232095123 14.990536877776862 H 0.0 **** 0.06
25000 H 83.94352328873603 86.5241301895552 13.90583742063474 H 0.0 **** 0.06
25001 C 75.48868320036057 58.62044971780489 43.7617402980082 C 0.0 **** -0.24
25002 H 75.76831695477175 58.34384325779589 44.77882417602168 H 0.0 **** 0.06
25003 H 74.429621548258 58.41157182302693 43.60755787450772 H 0.0 **** 0.06
25004 H 76.0808057562872 58.04382925970515 43.05225571346444 H 0.0 **** 0.06
25005 H 75.67519142636495 59.683889847440085 43.61141893106344 H 0.0 **** 0.06
25006 C 57.8529908051927 2.0943277048083786 56.5986797923083 C 0.0 **** -0.24
25007 H 57.45489497033054 1.61290409667086 55.705489586181585 H 0.0 **** 0.06
25008 H 58.92470834546158 1.9084083185559706 56.6643775488362 H 0.0 **** 0.06
25009 H 57.3577251266976 1.6881221941414282 57.48103049319593 H 0.0 **** 0.06
25010 H 57.67253752208031 3.1672752380103617 56.54270769591204 H 0.0 **** 0.06
25011 C 48.07881339758486 58.04436402767769 20.854569024233143 C 0.0 **** -0.24
25012 H 48.33310801677954 57.07992739980841 21.293697645356133 H 0.0 **** 0.06
25013 H 48.726276242408055 58.23596209813755 19.999081584597462 H 0.0 **** 0.06
25014 H 48.21804835435349 58.82947613046741 21.597978307103176 H 0.0 **** 0.06
25015 H 47.03911526866385 58.032179512472965 20.529339859846118 H 0.0 **** 0.06
25016 C 19.514279678367075 76.33454100306494 27.148152553712066 C 0.0 **** -0.24
25017 H 20.1350481660171 75.94012700931967 26.344109157600744 H 0.0 **** 0.06
25018 H 19.23176107702801 75.52264642470118 27.820027751279284 H 0.0 **** 0.06
25019 H 18.61662318206828 76.78651005811548 26.726103357469164 H 0.0 **** 0.06
25020 H 20.07397851268331 77.08742314963013 27.704040555446824 H 0.0 **** 0.06
25021 C 81.6757172041182 53.438175348261574 67.22696190090285 C 0.0 **** -0.24
25022 H 82.70821206785456 53.2288245800614 66.95024316148016 H 0.0 **** 0.06
25023 H 81.21262975531482 54.059952102949836 66.46014741091777 H 0.0 **** 0.06
25024 H 81.65565772637905 53.963768366833875 68.18239865899658 H 0.0 **** 0.06
25025 H 81.12633292053329 52.50065864191634 67.31745559490275 H 0.0 **** 0.06
25026 C 97.31531087033876 32.86630452244874 18.733258697637723 C 0.0 **** -0.24
25027 H 96.89994169595691 32.10455346317711 18.07444200024304 H 0.0 **** 0.06
25028 H 97.94659417236835 33.54072423647219 18.154761360100537 H 0.0 **** 0.06
25029 H 97.91086109818869 32.38855372972128 19.511471946062386 H 0.0 **** 0.06
25030 H 96.50384651484102 33.43138666042444 19.192359484144873 H 0.0 **** 0.06
25031 C 33.815285623820415 86.13838229111019 56.44766837632128 C 0.0 **** -0.24
25032 H 33.1820247714968 86.65409632782064 55.72575947725074 H 0.0 **** 0.06
25033 H 34.7176129880895 86.72392949384914 56.622406772959316 H 0.0 **** 0.06
25034 H 34.08768629124803 85.15771284145495 56.05770679775213 H 0.0 **** 0.06
25035 H 33.27189060187162 86.01786089984455 57.3853283476143 H 0.0 **** 0.06
25036 C 2.8346211022174117 103.38145649830653 61.42428344900654 C 0.0 **** -0.24
25037 H 2.3570203712950075 103.40856871058585 62.40320895832451 H 0.0 **** 0.06
25038 H 2.2392414812451875 103.95567631607763 60.7137115028699 H 0.0 **** 0.06
25039 H 2.9076752446859047 102.34858585248789 61.084139302061686 H 0.0 **** 0.06
25040 H 3.832597006422489 103.81267813942789 61.495027090552725 H 0.0 **** 0.06
25041 C 100.76080225762239 60.835904076807935 63.4396761234546 C 0.0 **** -0.24
25042 H 100.81467409954737 61.369109240715915 62.49060562992878 H 0.0 **** 0.06
25043 H 100.08721072976023 61.36453496527389 64.11570916586348 H 0.0 **** 0.06
25044 H 101.75496454097299 60.78312569777481 63.88450145397002 H 0.0 **** 0.06
25045 H 100.38553767079003 59.827070192786294 63.26841198255286 H 0.0 **** 0.06
25046 C 76.95583151770767 40.29254796047252 75.04569628571272 C 0.0 **** -0.24
25047 H 76.04069786183979 40.491731739428815 75.60314039509356 H 0.0 **** 0.06
25048 H 76.7543728308021 39.55482771213974 74.26914561019692 H 0.0 **** 0.06
25049 H 77.7177163615808 39.908794385100805 75.7232494903046 H 0.0 **** 0.06
25050 H 77.30883796452969 41.215834934966296 74.58691385860328 H 0.0 **** 0.06
25051 C 109.91504030873662 107.3197714676763 102.09782956385733 C 0.0 **** -0.24
25052 H 109.43366458800249 106.4084156420934 101.74343755555506 H 0.0 **** 0.06
25053 H 109.32970634655214 107.74789895622585 102.91211439215552 H 0.0 **** 0.06
25054 H 109.98007473848966 108.03777154030354 101.27946276371189 H 0.0 **** 0.06
25055 H 110.91794643641826 107.08513637620958 102.45562062610372 H 0.0 **** 0.06
25056 C 68.34860857970011 93.49186604600732 74.62540717128452 C 0.0 **** -0.24
25057 H 67.74621539977124 92.95695415267019 75.35893931332201 H 0.0 **** 0.06
25058 H 68.37535064193179 92.92392778321292 73.69437289497735 H 0.0 **** 0.06
25059 H 69.36222211718194 93.61423245882631 75.00648821857627 H 0.0 **** 0.06
25060 H 67.90930959879827 94.47163198839354 74.44099248494184 H 0.0 **** 0.06
25061 C 76.13135111225411 6.979609166825242 63.815906688066065 C 0.0 **** -0.24
25062 H 77.12504767326942 7.388951724133619 63.99298141540247 H 0.0 **** 0.06
25063 H 75.37981665061005 7.675853734828536 64.1909110762547 H 0.0 **** 0.06
25064 H 76.033291777653 6.025022705069205 64.33302252965083 H 0.0 **** 0.06
25065 H 75.98583971045663 6.829500055990707 62.74624159661121 H 0.0 **** 0.06
25066 C 73.79829649361349 6.215928167368148 12.907383434183942 C 0.0 **** -0.24
25067 H 73.92728467387516 6.639984761601426 13.903066000624591 H 0.0 **** 0.06
25068 H 73.0262378632965 5.447865717945376 12.936387110383663 H 0.0 **** 0.06
25069 H 74.73851769259633 5.774132717894773 12.576097074386354 H 0.0 **** 0.06
25070 H 73.50354593614443 7.003090015534511 12.213360330226593 H 0.0 **** 0.06
25071 C 64.58483603129423 99.55700789037112 19.350497898142976 C 0.0 **** -0.24
25072 H 65.44095018026235 100.14291685712452 19.683448235017522 H 0.0 **** 0.06
25073 H 64.92907944355409 98.73634143544085 18.720951405916423 H 0.0 **** 0.06
25074 H 63.90796038284441 100.19432663003172 18.780671644432744 H 0.0 **** 0.06
25075 H 64.06083237947439 99.15448972342374 20.21823409282314 H 0.0 **** 0.06
25076 C 18.11858211495877 101.41344591844029 11.355148384801879 C 0.0 **** -0.24
25077 H 17.16185810751091 101.24765561352618 11.849288470004055 H 0.0 **** 0.06
25078 H 18.11769318836491 100.9156946374124 10.385294469273944 H 0.0 **** 0.06
25079 H 18.920160049404757 101.00580804183852 11.971420181715033 H 0.0 **** 0.06
25080 H 18.27547695049813 102.48223099980373 11.21618040985301 H 0.0 **** 0.06
25081 C 46.05226831081154 13.574578061947648 37.438685284356474 C 0.0 **** -0.24
25082 H 45.75881021454637 13.739945961430394 38.475525462693085 H 0.0 **** 0.06
25083 H 46.254562232859655 12.514155677921423 37.28315283092072 H 0.0 **** 0.06
25084 H 46.95107002601594 14.152216164661255 37.22038163269292 H 0.0 **** 0.06
25085 H 45.24678597652792 13.892978240107283 36.777775902414476 H 0.0 **** 0.06
25086 C 79.23900773293843 9.6338673110493 38.90804984630222 C 0.0 **** -0.24
25087 H 79.20140755245045 10.719371278397702 38.994380889325555 H 0.0 **** 0.06
25088 H 80.23552948357919 9.329811738494016 38.58485263938417 H 0.0 **** 0.06
25089 H 78.50225914249272 9.302186454540134 38.176865859597285 H 0.0 **** 0.06
25090 H 79.01897266419266 9.184712742946076 39.87633206513874 H 0.0 **** 0.06
25091 C 62.652848155123934 95.58753616034988 93.8981354193426 C 0.0 **** -0.24
25092 H 62.267843079602414 94.62693913793866 93.55725694034363 H 0.0 **** 0.06
25093 H 62.30407414985456 95.77781001816801 94.913632506141 H 0.0 **** 0.06
25094 H 62.29631626153247 96.37732322745961 93.23678064494413 H 0.0 **** 0.06
25095 H 63.742207605343424 95.56656566260943 93.88622252042784 H 0.0 **** 0.06
25096 C 10.667300564867563 14.339842324614082 91.25213089472419 C 0.0 **** -0.24
25097 H 9.88154436557797 14.171077925657642 90.51547865163874 H 0.0 **** 0.06
25098 H 11.545514841027938 14.754780648366374 90.75671224026141 H 0.0 **** 0.06
25099 H 10.928941893963682 13.394053959342383 91.72589442295623 H 0.0 **** 0.06
25100 H 10.311870722750669 15.03891358899924 92.0087250358678 H 0.0 **** 0.06
25101 C 95.649521642492 89.04310930971786 97.07408494482519 C 0.0 **** -0.24
25102 H 95.09387247245337 88.21859779896562 97.51964240373039 H 0.0 **** 0.06
25103 H 95.92709583779349 88.78455165234908 96.0522575464384 H 0.0 **** 0.06
25104 H 96.55030938256725 89.23218261610378 97.65815812028757 H 0.0 **** 0.06
25105 H 95.02718253181257 89.9384615607355 97.06613786565086 H 0.0 **** 0.06
25106 C 106.96749405863403 5.511206671576957 47.976497257015794 C 0.0 **** -0.24
25107 H 105.95390572056576 5.886627878784594 47.83700061633442 H 0.0 **** 0.06
25108 H 107.44911287574162 5.394897657879966 47.005347275819105 H 0.0 **** 0.06
25109 H 106.93043845927703 4.54633172895177 48.482347992346284 H 0.0 **** 0.06
25110 H 107.53496772339172 6.217213036664049 48.58202375134893 H 0.0 **** 0.06
25111 C 17.11917520830781 74.39226392673825 49.91306767049659 C 0.0 **** -0.24
25112 H 17.639471016804595 75.32637799989578 49.70486625966251 H 0.0 **** 0.06
25113 H 16.57721416565272 74.48037654851491 50.85516542165095 H 0.0 **** 0.06
25114 H 17.844173827952257 73.5809084142079 49.985896387397446 H 0.0 **** 0.06
25115 H 16.41617290423442 74.1798510765051 49.107059409086844 H 0.0 **** 0.06
25116 C 63.39093244971912 35.446228807086655 79.50183741399006 C 0.0 **** -0.24
25117 H 63.96497627380501 35.406289233842955 80.42776358184169 H 0.0 **** 0.06
25118 H 63.96589072460716 35.97241337415082 78.73948871328922 H 0.0 **** 0.06
25119 H 62.45378984963378 35.97433709046308 79.67929486304338 H 0.0 **** 0.06
25120 H 63.17807394856743 34.43244981119787 79.16296409375288 H 0.0 **** 0.06
25121 C 84.74074625135479 27.706295842313537 29.972141906897434 C 0.0 **** -0.24
25122 H 85.18913348081449 28.616796874343883 29.57390890653579 H 0.0 **** 0.06
25123 H 85.52573082505104 27.049543445248183 30.34756334748633 H 0.0 **** 0.06
25124 H 84.18877420018794 27.197372510020607 29.18172894852421 H 0.0 **** 0.06
25125 H 84.06107453135395 27.961891794298573 30.78401117549123 H 0.0 **** 0.06
25126 C 63.847401516434104 72.10276505140706 107.71543655696786 C 0.0 **** -0.24
25127 H 64.2079752236715 72.72643913900477 106.89754233556397 H 0.0 **** 0.06
25128 H 64.31199537310815 72.42206991585006 108.64848194571053 H 0.0 **** 0.06
25129 H 64.1052577610514 71.06145539769985 107.51811910510514 H 0.0 **** 0.06
25130 H 62.76441276438749 72.19915486972386 107.79649288912591 H 0.0 **** 0.06
25131 C 109.80377001118731 59.30373307398423 95.94954429156803 C 0.0 **** -0.24
25132 H 109.7363741595502 58.38903296824178 96.53806380775688 H 0.0 **** 0.06
25133 H 110.81309785276468 59.40586941791251 95.55118491199386 H 0.0 **** 0.06
25134 H 109.5743889910564 60.160508767664496 96.58319127091954 H 0.0 **** 0.06
25135 H 109.09121904137817 59.259521142118146 95.1257371756023 H 0.0 **** 0.06
25136 C 110.22741342393391 54.57601851103527 71.77301103151827 C 0.0 **** -0.24
25137 H 111.29644895092235 54.65407340476153 71.96985662082422 H 0.0 **** 0.06
25138 H 109.71573435675799 55.43875958002897 72.2015401389832 H 0.0 **** 0.06
25139 H 109.83995471282685 53.662281998913556 72.22458728032441 H 0.0 **** 0.06
25140 H 110.05651722962 54.550667570509916 70.69710140773849 H 0.0 **** 0.06
25141 C 28.619977719538525 61.393935751605284 67.51203103878532 C 0.0 **** -0.24
25142 H 28.028122786894187 60.48881210456153 67.65153264902753 H 0.0 **** 0.06
25143 H 28.602810259656763 61.98374252290148 68.42805993629275 H 0.0 **** 0.06
25144 H 28.19938983169419 61.97883562130016 66.6944910298738 H 0.0 **** 0.06
25145 H 29.648094636300186 61.121537221624976 67.27312229431959 H 0.0 **** 0.06
25146 C 103.48580664316519 37.24100257056233 55.790247499910464 C 0.0 **** -0.24
25147 H 103.07768716133003 36.423047168118416 55.19660014980704 H 0.0 **** 0.06
25148 H 104.3072037592117 37.70850732982228 55.24736739981506 H 0.0 **** 0.06
25149 H 103.85160270182134 36.852842877427975 56.74088887943731 H 0.0 **** 0.06
25150 H 102.70505550691979 37.97913208618834 55.9751562291446 H 0.0 **** 0.06
25151 C 28.767160164771802 106.81815504600559 22.494547309453765 C 0.0 **** -0.24
25152 H 29.587277271437472 107.14246715993954 21.85450177824714 H 0.0 **** 0.06
25153 H 29.027738443900617 106.9984226190928 23.538041129924267 H 0.0 **** 0.06
25154 H 28.586118529688612 105.75424118660106 22.343299397471924 H 0.0 **** 0.06
25155 H 27.86664639884541 107.37855743512833 22.2426924569657 H 0.0 **** 0.06
25156 C 86.86378287143648 9.973807291951672 73.76800787805752 C 0.0 **** -0.24
25157 H 87.73850989359744 10.182584100238348 74.38421046634579 H 0.0 **** 0.06
25158 H 86.22964164219584 10.859999309229643 73.72602694726704 H 0.0 **** 0.06
25159 H 86.30292631667436 9.145862033360698 74.20174548252068 H 0.0 **** 0.06
25160 H 87.18354097330135 9.707524193571963 72.76048328411531 H 0.0 **** 0.06
25161 C 38.97492400316213 67.12302644025817 63.884988929816316 C 0.0 **** -0.24
25162 H 38.67129671708585 66.07707132038932 63.83099687808998 H 0.0 **** 0.06
25163 H 38.10961931591714 67.74009754199406 64.12640096482765 H 0.0 **** 0.06
25164 H 39.38531488379107 67.4312841771185 62.924296399592336 H 0.0 **** 0.06
25165 H 39.73307775241142 67.24085681477466 64.65844388477882 H 0.0 **** 0.06
25166 C 74.17748511238861 21.426258155720234 21.916464533675793 C 0.0 **** -0.24
25167 H 73.61681960594484 20.52205652804429 22.154639607707196 H 0.0 **** 0.06
25168 H 73.71021981526091 22.281800433052638 22.405165195250333 H 0.0 **** 0.06
25169 H 74.17842513689212 21.57955746191675 20.838214065802106 H 0.0 **** 0.06
25170 H 75.20305515600809 21.320709790632748 22.270514486723528 H 0.0 **** 0.06
25171 C 8.735914294874007 3.6433870282918797 32.506559660465115 C 0.0 **** -0.24
25172 H 8.452390431178117 4.460634800258944 33.169582298435984 H 0.0 **** 0.06
25173 H 9.822902154074711 3.5718823780326776 32.46265937721745 H 0.0 **** 0.06
25174 H 8.343280835867475 3.834147186127012 31.508067180554235 H 0.0 **** 0.06
25175 H 8.324061619125075 2.707626765531593 32.886564811610896 H 0.0 **** 0.06
25176 C 66.66254726764276 21.673374435613425 21.7181523018308 C 0.0 **** -0.24
25177 H 65.76623853227704 21.877627902349957 21.13229659029662 H 0.0 **** 0.06
25178 H 66.38484176598638 21.503741567068573 22.75865703431714 H 0.0 **** 0.06
25179 H 67.33825042849634 22.527269498125435 21.657380121631405 H 0.0 **** 0.06
25180 H 67.15989893204181 20.787700653184572 21.32421455603017 H 0.0 **** 0.06
25181 C 35.55676742722836 69.43872994677625 25.60784777005648 C 0.0 **** -0.24
25182 H 34.73296833783679 69.98854811813844 26.06232410600156 H 0.0 **** 0.06
25183 H 35.255445333783186 68.4051144173054 25.44173757482925 H 0.0 **** 0.06
25184 H 36.420875809472626 69.46402149277067 26.271860405417197 H 0.0 **** 0.06
25185 H 35.818253804949975 69.89935178302457 24.654922717534298 H 0.0 **** 0.06
25186 C 98.22541776924739 74.31056237560195 11.473927086319563 C 0.0 **** -0.24
25187 H 97.45105340159184 74.83923648605185 10.916913344925646 H 0.0 **** 0.06
25188 H 98.12111234585736 73.23742817544378 11.311356669955405 H 0.0 **** 0.06
25189 H 98.12184738118273 74.52948136690884 12.53580197896829 H 0.0 **** 0.06
25190 H 99.20624522849727 74.63717754791985 11.129217459055134 H 0.0 **** 0.06
25191 C 14.081352486500009 3.2755620313214315 26.018279654293508 C 0.0 **** -0.24
25192 H 14.922790896424488 3.927938715248956 26.25311327507376 H 0.0 **** 0.06
25193 H 13.157761348001713 3.730005754307145 26.377494168270687 H 0.0 **** 0.06
25194 H 14.22431355012094 2.3096822087150786 26.503941152641744 H 0.0 **** 0.06
25195 H 14.021942956905775 3.134507508905445 24.939585162678725 H 0.0 **** 0.06
25196 C 19.989104155840494 81.79941319293863 101.06266925223247 C 0.0 **** -0.24
25197 H 19.101335920251074 82.3142545477908 101.43090247391223 H 0.0 **** 0.06
25198 H 19.701798201153537 80.83608532510709 100.64207989671775 H 0.0 **** 0.06
25199 H 20.68642758736206 81.64405275378505 101.88643435345222 H 0.0 **** 0.06
25200 H 20.46618288536021 82.40545360312467 100.29211901655327 H 0.0 **** 0.06
25201 C 66.49221045752142 103.48204388427968 29.14269801820916 C 0.0 **** -0.24
25202 H 66.16746641869756 102.48572959260065 29.443496783619537 H 0.0 **** 0.06
25203 H 66.50020486049436 103.54835059694392 28.05452052087358 H 0.0 **** 0.06
25204 H 67.49654456892355 103.66801158910818 29.52594055231387 H 0.0 **** 0.06
25205 H 65.80651728372948 104.22551368322854 29.54788218705339 H 0.0 **** 0.06
25206 C 55.78382604856205 14.919328893565051 31.138434661135022 C 0.0 **** -0.24
25207 H 54.85939440822041 14.55593803019633 31.58522192727557 H 0.0 **** 0.06
25208 H 56.089758213676014 15.840766001634762 31.635184057990756 H 0.0 **** 0.06
25209 H 55.622436161841975 15.11441909005282 30.077749078746052 H 0.0 **** 0.06
25210 H 56.56376341839571 14.1673840453698 31.254823381911308 H 0.0 **** 0.06
25211 C 36.940536623387004 25.330305743703036 23.656144035108497 C 0.0 **** -0.24
25212 H 37.36161402356936 25.081612563391047 22.68160963572602 H 0.0 **** 0.06
25213 H 37.746604191596816 25.59205257280206 24.343062884638517 H 0.0 **** 0.06
25214 H 36.39449287216041 24.47145498551049 24.046122646161567 H 0.0 **** 0.06
25215 H 36.262044907032134 26.177437403674332 23.55259354682307 H 0.0 **** 0.06
25216 C 98.15856211571764 24.915088572255222 101.76589102703079 C 0.0 **** -0.24
25217 H 97.24622645353206 25.209195552062102 101.2473339536704 H 0.0 **** 0.06
25218 H 98.15994548280541 23.834031319698717 101.91331609724668 H 0.0 **** 0.06
25219 H 98.20346869753115 25.41456873280463 102.73391877645392 H 0.0 **** 0.06
25220 H 99.02344480488922 25.201666344988524 101.16807264538474 H 0.0 **** 0.06
25221 C 106.4535097699033 84.19460292534907 30.00483439179243 C 0.0 **** -0.24
25222 H 105.85923502798144 85.10869821434812 30.011841507968427 H 0.0 **** 0.06
25223 H 106.20885104888016 83.5961884020177 30.883015440000662 H 0.0 **** 0.06
25224 H 107.51268020650892 84.45085396878787 30.023030749365432 H 0.0 **** 0.06
25225 H 106.23332328306753 83.62448485225406 29.102756799116946 H 0.0 **** 0.06
25226 C 59.661393838504665 47.748973481663356 106.99119016218545 C 0.0 **** -0.24
25227 H 58.832761175355515 48.39989361653465 107.26995281411224 H 0.0 **** 0.06
25228 H 59.391535627538474 47.175929054038704 106.10452149484749 H 0.0 **** 0.06
25229 H 59.88060031266917 47.06668832109533 107.81272362602249 H 0.0 **** 0.06
25230 H 60.54257986193326 48.35442701052498 106.77870027082622 H 0.0 **** 0.06
25231 C 14.68903559901878 37.239550055212135 41.05624421609861 C 0.0 **** -0.24
25232 H 13.780788328909694 37.84349451799143 41.05345265781957 H 0.0 **** 0.06
25233 H 14.7163796914937 36.62916747039151 41.95843881299469 H 0.0 **** 0.06
25234 H 15.559672523529116 37.89439744710671 41.03285758524267 H 0.0 **** 0.06
25235 H 14.697589751624633 36.59272146060593 40.17862450555918 H 0.0 **** 0.06
25236 C 89.1605606958723 81.19294928550516 86.65721794406848 C 0.0 **** -0.24
25237 H 88.8209034673793 80.16355924318566 86.76895786187961 H 0.0 **** 0.06
25238 H 90.16438674144865 81.29067979238874 87.07366467283099 H 0.0 **** 0.06
25239 H 88.4810550651992 81.85905318007184 87.18825315667891 H 0.0 **** 0.06
25240 H 89.17784984828415 81.4573915296568 85.60081554839361 H 0.0 **** 0.06
25241 C 78.36326857354322 22.437384211241113 53.06851494934563 C 0.0 **** -0.24
25242 H 78.08092419846344 21.411426832063693 52.832824836276984 H 0.0 **** 0.06
25243 H 79.10130248236305 22.435031276844892 53.87185438135259 H 0.0 **** 0.06
25244 H 77.48099830670651 22.992417424054754 53.38766076473888 H 0.0 **** 0.06
25245 H 78.79002248473012 22.90877824176941 52.18327684986133 H 0.0 **** 0.06
25246 C 41.373875868837416 79.89173539878942 53.38050929277165 C 0.0 **** -0.24
25247 H 40.53447205756822 79.72849591208893 54.05568689424172 H 0.0 **** 0.06
25248 H 41.99608888726402 78.99695513193339 53.35261684817351 H 0.0 **** 0.06
25249 H 41.966735317404414 80.73523377023454 53.734263308948584 H 0.0 **** 0.06
25250 H 40.998750555691544 80.1051895131904 52.38022232915546 H 0.0 **** 0.06
25251 C 102.70835258972036 95.8063774651788 25.84969618578569 C 0.0 **** -0.24
25252 H 101.66792620736081 95.9687380222647 26.131246758494626 H 0.0 **** 0.06
25253 H 102.75178606940807 95.38801285282356 24.84362940609907 H 0.0 **** 0.06
25254 H 103.17124982538962 95.11298520582652 26.55144972273078 H 0.0 **** 0.06
25255 H 103.24297231837453 96.75675035573228 25.871580357446362 H 0.0 **** 0.06
25256 C 108.54682266821533 37.569080981816256 34.73429773367036 C 0.0 **** -0.24
25257 H 108.76241925377498 37.91762425692799 33.72421039269318 H 0.0 **** 0.06
25258 H 109.44102444258739 37.66781117324183 35.350889445868305 H 0.0 **** 0.06
25259 H 108.24128774725095 36.52347046742905 34.699717633923626 H 0.0 **** 0.06
25260 H 107.74303242652364 38.16930012647704 35.16126258537142 H 0.0 **** 0.06
25261 C 105.18116066543388 92.95558523007318 103.86524420566849 C 0.0 **** -0.24
25262 H 104.16932023586656 92.98539006468906 104.270444635877 H 0.0 **** 0.06
25263 H 105.18261179280955 92.39161053052294 102.93248745045776 H 0.0 **** 0.06
25264 H 105.8451365814476 92.47400915828547 104.58313361493805 H 0.0 **** 0.06
25265 H 105.52597051869645 93.97257600139329 103.67628202281179 H 0.0 **** 0.06
25266 C 67.0775290650877 109.29366422400773 39.00958711949341 C 0.0 **** -0.24
25267 H 67.46643855334855 109.46753688440354 40.012564889296875 H 0.0 **** 0.06
25268 H 67.34292839602233 108.28707926826327 38.68749766288976 H 0.0 **** 0.06
25269 H 67.50748278162436 110.02189494548259 38.321769877576756 H 0.0 **** 0.06
25270 H 65.9919103582119 109.39814046824509 39.017986072881605 H 0.0 **** 0.06
25271 C 108.47978756309689 65.05001774754254 4.668057400939119 C 0.0 **** -0.24
25272 H 108.95309018473407 66.03194145781885 4.662383484588531 H 0.0 **** 0.06
25273 H 109.17265673706432 64.31115166637244 4.265081014987686 H 0.0 **** 0.06
25274 H 107.57965393945427 65.07789900211873 4.05305505582686 H 0.0 **** 0.06
25275 H 108.21402070629696 64.77989524094164 5.689416531793995 H 0.0 **** 0.06
25276 C 108.27014857498895 55.00290003829641 89.04861060209673 C 0.0 **** -0.24
25277 H 108.8535695526584 55.58230427121011 88.33250064565573 H 0.0 **** 0.06
25278 H 107.22208019407165 55.00107105544742 88.74585136335081 H 0.0 **** 0.06
25279 H 108.36221334671262 55.44941246416341 90.03830167747665 H 0.0 **** 0.06
25280 H 108.64267742108888 53.97875060931221 89.0755540977575 H 0.0 **** 0.06
25281 C 81.52151189596327 14.08760216681905 24.53798348301251 C 0.0 **** -0.24
25282 H 80.71965569050175 14.003455231584166 25.271281945208898 H 0.0 **** 0.06
25283 H 82.46654739608277 13.795546139314773 24.998070443220115 H 0.0 **** 0.06
25284 H 81.58989444978988 15.118161683302056 24.189382495341505 H 0.0 **** 0.06
25285 H 81.31035984832101 13.43157467990848 23.69299855774662 H 0.0 **** 0.06
25286 C 1.4499106368451171 27.945050172207175 72.33745401129136 C 0.0 **** -0.24
25287 H 1.3559111541349118 28.13303431804445 73.40747122640454 H 0.0 **** 0.06
25288 H 1.7846384921561533 28.85504438155155 71.83754138765391 H 0.0 **** 0.06
25289 H 0.48273370404229343 27.644974515525348 71.93539920962314 H 0.0 **** 0.06
25290 H 2.175805102889691 27.150188497196297 72.17007179813032 H 0.0 **** 0.06
25291 C 66.20368883002553 9.286210371041175 11.96345722356412 C 0.0 **** -0.24
25292 H 65.3058914595508 8.669597545866724 12.001852773302204 H 0.0 **** 0.06
25293 H 66.20502941767803 9.977519180876225 12.806226508382409 H 0.0 **** 0.06
25294 H 66.21645356765518 9.850503272142033 11.030654272451443 H 0.0 **** 0.06
25295 H 67.08580424793055 8.647853325235499 12.01364094125691 H 0.0 **** 0.06
25296 C 48.863811721664945 95.00381755813282 10.181450517335122 C 0.0 **** -0.24
25297 H 48.94449588148407 95.53934330266908 9.235444184759146 H 0.0 **** 0.06
25298 H 47.96624559238194 94.3845763625628 10.172276060109397 H 0.0 **** 0.06
25299 H 48.80246185917173 95.72068387245635 11.000063733554953 H 0.0 **** 0.06
25300 H 49.7413406017277 94.37145881377093 10.316647486279862 H 0.0 **** 0.06
25301 C 21.696035771153674 19.399531084638312 13.647506634298963 C 0.0 **** -0.24
25302 H 20.99782483414259 19.761674863741092 14.402808000625242 H 0.0 **** 0.06
25303 H 21.153746805576986 18.819959842108602 12.899888666907827 H 0.0 **** 0.06
25304 H 22.448394787594964 18.76938755966674 14.122547490017041 H 0.0 **** 0.06
25305 H 22.1835987426187 20.248652525022777 13.16728489153516 H 0.0 **** 0.06
25306 C 4.431239038718829 7.448807379861762 64.56915017042661 C 0.0 **** -0.24
25307 H 4.067125452683442 6.564400790366733 65.09141924222305 H 0.0 **** 0.06
25308 H 5.520099220039796 7.423468911861562 64.52856458846259 H 0.0 **** 0.06
25309 H 4.107395007369888 8.343381911616689 65.10165295183242 H 0.0 **** 0.06
25310 H 4.029267456346659 7.4639913683693635 63.5569278924994 H 0.0 **** 0.06
25311 C 69.4370957465469 35.1609225620856 2.395239450111177 C 0.0 **** -0.24
25312 H 69.17604203992619 34.776946842483696 3.381342555738442 H 0.0 **** 0.06
25313 H 68.78443037050619 34.711561458359114 1.6463153742135148 H 0.0 **** 0.06
25314 H 70.47355701840053 34.91228991489359 2.171736729846529 H 0.0 **** 0.06
25315 H 69.31157746951345 36.244270922536515 2.3821896401515517 H 0.0 **** 0.06
25316 C 33.12380193758662 48.32537612098327 59.17351088929756 C 0.0 **** -0.24
25317 H 33.06830345742554 48.7133500666599 60.19061947176242 H 0.0 **** 0.06
25318 H 32.115731706366006 48.180647652604826 58.78474769593437 H 0.0 **** 0.06
25319 H 33.65315264798963 47.37219166832609 59.176973647242576 H 0.0 **** 0.06
25320 H 33.65917414546536 49.03471272932547 58.5422550654934 H 0.0 **** 0.06
25321 C 51.837393035419495 65.83434697901193 28.97179608098395 C 0.0 **** -0.24
25322 H 51.84738879299596 66.81824216799961 28.502346301634645 H 0.0 **** 0.06
25323 H 51.41644020487536 65.10469735640615 28.279921176516666 H 0.0 **** 0.06
25324 H 51.23049214182345 65.86967523672747 29.87651645270188 H 0.0 **** 0.06
25325 H 52.85627369734584 65.54559730699702 29.229529560197363 H 0.0 **** 0.06
25326 C 103.07324259549327 84.51918299270288 10.704820951341048 C 0.0 **** -0.24
25327 H 103.08717353260275 84.34381034079608 9.629694432925135 H 0.0 **** 0.06
25328 H 103.89842336070738 85.17890222259659 10.97510419107391 H 0.0 **** 0.06
25329 H 103.17982222201228 83.56976291889023 11.22944942265893 H 0.0 **** 0.06
25330 H 102.12835315806247 84.98541934533347 10.984966226191744 H 0.0 **** 0.06
25331 C 17.28529713748958 33.26312431825136 92.50163727174896 C 0.0 **** -0.24
25332 H 16.665343755464676 34.15013566887629 92.62644644483447 H 0.0 **** 0.06
25333 H 17.365526584597262 32.73837312716961 93.45389783488713 H 0.0 **** 0.06
25334 H 18.279167470723223 33.55967295109963 92.16563961318491 H 0.0 **** 0.06
25335 H 16.83254742615634 32.604532054805674 91.7605153820237 H 0.0 **** 0.06
25336 C 49.80949089279496 72.66060868267908 0.8111678321187412 C 0.0 **** -0.24
25337 H 49.06222777317863 72.34118631459862 1.5372965343226213 H 0.0 **** 0.06
25338 H 50.18449879339226 71.79184790842748 0.270693510307666 H 0.0 **** 0.06
25339 H 50.63322559163443 73.15092177054834 1.3294611149146078 H 0.0 **** 0.06
25340 H 49.35632292248075 73.35875618677898 0.1069515197475539 H 0.0 **** 0.06
25341 C 26.92031262924597 31.21457158671174 40.00789035268491 C 0.0 **** -0.24
25342 H 27.553013413777336 32.0731442712231 39.78461618369283 H 0.0 **** 0.06
25343 H 27.0100106814147 30.962284436489085 41.06411672290315 H 0.0 **** 0.06
25344 H 27.235734388498372 30.36409428956327 39.40297445444517 H 0.0 **** 0.06
25345 H 25.882644370101445 31.458377525892644 39.77850200157022 H 0.0 **** 0.06
25346 C 54.27553972228321 49.81618822231496 70.54065217402137 C 0.0 **** -0.24
25347 H 53.63814301230951 49.13841448287815 71.10949220491989 H 0.0 **** 0.06
25348 H 55.09791556050442 49.25449321862328 70.09742148569353 H 0.0 **** 0.06
25349 H 54.67514440542061 50.582425765198195 71.20530913856499 H 0.0 **** 0.06
25350 H 53.690867320491634 50.28946525797721 69.75211508687192 H 0.0 **** 0.06
25351 C 30.611771027299056 109.96746831014511 43.15704820674618 C 0.0 **** -0.24
25352 H 29.759111510886328 110.00538823791092 42.47870715271345 H 0.0 **** 0.06
25353 H 30.318199718165317 109.47393458801622 44.08354757873023 H 0.0 **** 0.06
25354 H 30.946265972124053 110.98251470776428 43.37571409524944 H 0.0 **** 0.06
25355 H 31.42383276141976 109.41088861932478 42.68889915578268 H 0.0 **** 0.06
25356 C 76.51695547699626 91.67159136122179 86.32471836816815 C 0.0 **** -0.24
25357 H 76.94167525919937 90.66899407035753 86.28456285295246 H 0.0 **** 0.06
25358 H 75.64176173149644 91.7211833433765 85.67506892897389 H 0.0 **** 0.06
25359 H 77.25951314948878 92.39460476085605 85.9891123612975 H 0.0 **** 0.06
25360 H 76.22252081917617 91.90078936158355 87.34877170220209 H 0.0 **** 0.06
25361 C 4.8068829118414556 88.26743811167904 75.83185147817514 C 0.0 **** -0.24
25362 H 4.952348522520197 87.2584462861239 76.21673710613724 H 0.0 **** 0.06
25363 H 5.690767556116924 88.5738915948694 75.27152480400642 H 0.0 **** 0.06
25364 H 4.6487258588391 88.95401069096235 76.663448233829 H 0.0 **** 0.06
25365 H 3.93621100619535 88.28484645941728 75.17650034967639 H 0.0 **** 0.06
25366 C 39.28960515677119 53.44304030799352 91.30298697809246 C 0.0 **** -0.24
25367 H 38.531148827562845 54.178254490187584 91.03446356268108 H 0.0 **** 0.06
25368 H 39.87718259328415 53.18768499281259 90.42103507438219 H 0.0 **** 0.06
25369 H 38.80533766242314 52.54644103794819 91.69054407060608 H 0.0 **** 0.06
25370 H 39.945736531484556 53.86126960355104 92.06725177431468 H 0.0 **** 0.06
25371 C 54.44451283918331 25.135469531736177 11.561299787387014 C 0.0 **** -0.24
25372 H 54.96241380784033 25.658461904286053 10.757601289724747 H 0.0 **** 0.06
25373 H 54.783845196265105 25.520664715972853 12.523507154186461 H 0.0 **** 0.06
25374 H 54.661754051319456 24.068773667125683 11.499275928400678 H 0.0 **** 0.06
25375 H 53.3706756552381 25.293244895389087 11.464576821171647 H 0.0 **** 0.06
25376 C 19.774723430735385 102.41204546071225 60.05144893248483 C 0.0 **** -0.24
25377 H 20.505313516628995 101.88915041285341 59.433652311524 H 0.0 **** 0.06
25378 H 20.10839987285652 102.40943885101876 61.08878153792507 H 0.0 **** 0.06
25379 H 18.810978639129868 101.90913922170705 59.97705820402676 H 0.0 **** 0.06
25380 H 19.676732937517755 103.44069956583371 59.70355906480907 H 0.0 **** 0.06
25381 C 21.75286344749503 83.55043865028371 21.83214089562938 C 0.0 **** -0.24
25382 H 21.988152410932855 83.3761938570167 22.881907807327423 H 0.0 **** 0.06
25383 H 22.409081773555528 82.94305104946076 21.20727079846364 H 0.0 **** 0.06
25384 H 21.89992854636222 84.60423459876732 21.59705229286527 H 0.0 **** 0.06
25385 H 20.714846040731942 83.27697576305812 21.642270795507585 H 0.0 **** 0.06
25386 C 54.62103727721446 71.35335743484688 65.74884271948935 C 0.0 **** -0.24
25387 H 55.01200711700023 71.24410428035117 66.7608383251785 H 0.0 **** 0.06
25388 H 53.59210068708891 70.99344393060217 65.71619986968025 H 0.0 **** 0.06
25389 H 55.23230719570024 70.77120933026143 65.0582759453142 H 0.0 **** 0.06
25390 H 54.64782816709105 72.40399377084358 65.46129406959227 H 0.0 **** 0.06
25391 C 67.06048106159166 55.00219288931561 31.42964491689918 C 0.0 **** -0.24
25392 H 68.09347475251886 55.28419019120531 31.63234732712243 H 0.0 **** 0.06
25393 H 66.74981566729696 55.42307316372228 30.47290431224306 H 0.0 **** 0.06
25394 H 66.41803285973006 55.38510749454895 32.22203901205114 H 0.0 **** 0.06
25395 H 66.98169001077237 53.91505384158154 31.391298264525233 H 0.0 **** 0.06
25396 C 19.537474564707225 52.31464954843582 80.67122011793035 C 0.0 **** -0.24
25397 H 19.364076108050398 52.89126640963235 81.58021667397924 H 0.0 **** 0.06
25398 H 20.60398151657489 52.303697397099064 80.44668348994398 H 0.0 **** 0.06
25399 H 18.9957376121026 52.77210332302472 79.84327334613337 H 0.0 **** 0.06
25400 H 19.18494933784052 51.29329498861254 80.81706452085143 H 0.0 **** 0.06
25401 C 38.504424789262714 62.8770484718458 28.856853512642317 C 0.0 **** -0.24
25402 H 38.95021120902993 63.73928638547437 29.351103345816455 H 0.0 **** 0.06
25403 H 39.01079680704157 62.69887384780371 27.90733205550717 H 0.0 **** 0.06
25404 H 37.44659986249087 63.069738766973856 28.67382705928084 H 0.0 **** 0.06
25405 H 38.60747655396352 61.998834653168245 29.495328747884116 H 0.0 **** 0.06
25406 C 22.037169963007486 62.8491244399701 55.176668723735474 C 0.0 **** -0.24
25407 H 22.885972944978644 62.81435250917113 54.49359614302756 H 0.0 **** 0.06
25408 H 21.809154902648384 61.841384105665156 55.522700862095405 H 0.0 **** 0.06
25409 H 21.17152327016711 63.26146306688511 54.65852841614543 H 0.0 **** 0.06
25410 H 22.284188986287123 63.48105059494233 56.03034531318548 H 0.0 **** 0.06
25411 C 60.71121969455186 78.57655081244677 45.18819261261814 C 0.0 **** -0.24
25412 H 61.405075870185925 78.69089982284335 46.02058531279147 H 0.0 **** 0.06
25413 H 60.07191802620379 77.71086762969672 45.36551945477419 H 0.0 **** 0.06
25414 H 61.2724920584683 78.42996197232405 44.26461541065311 H 0.0 **** 0.06
25415 H 60.09599674212113 79.47171074213529 45.10201774774259 H 0.0 **** 0.06
25416 C 27.15438249787306 37.53455823668007 97.81892578635745 C 0.0 **** -0.24
25417 H 27.848964359343476 38.106640186817785 98.4327970548332 H 0.0 **** 0.06
25418 H 26.188892697347157 37.47482929901367 98.32210236789615 H 0.0 **** 0.06
25419 H 27.54742813272923 36.529187497576366 97.66530750805669 H 0.0 **** 0.06
25420 H 27.031175746199956 38.02767957425873 96.85457616852074 H 0.0 **** 0.06
25421 C 5.880003037790743 92.22359568876087 29.527937329672447 C 0.0 **** -0.24
25422 H 5.7951714446117535 91.67859135061552 28.58865541126574 H 0.0 **** 0.06
25423 H 5.500183188928872 91.60710714543964 30.342228097372825 H 0.0 **** 0.06
25424 H 5.299053508989118 93.14379160019689 29.467531603501513 H 0.0 **** 0.06
25425 H 6.926684678655533 92.46707754403194 29.71357655021724 H 0.0 **** 0.06
25426 C 88.5056614960673 67.87389046768931 96.80193650672136 C 0.0 **** -0.24
25427 H 89.54015006415256 68.20200431738175 96.90645190470397 H 0.0 **** 0.06
25428 H 88.29409630969788 67.66773529064972 95.75315535634185 H 0.0 **** 0.06
25429 H 87.83875674302897 68.65808391459797 97.16055110654638 H 0.0 **** 0.06
25430 H 88.35085457379475 66.96866000870921 97.38922551177399 H 0.0 **** 0.06
25431 C 29.803583332408152 9.774769593394012 103.28103117994304 C 0.0 **** -0.24
25432 H 29.110995529535273 8.958003239555438 103.48799172332149 H 0.0 **** 0.06
25433 H 29.46076812311074 10.32919040095149 102.4074574687719 H 0.0 **** 0.06
25434 H 30.7958955795944 9.368064073426822 103.08776782910917 H 0.0 **** 0.06
25435 H 29.8446880953465 10.442178318576211 104.14207342320158 H 0.0 **** 0.06
25436 C 52.18313019834244 40.33093492845086 28.322755744295243 C 0.0 **** -0.24
25437 H 51.774249277212164 40.37037307897444 27.312424696047167 H 0.0 **** 0.06
25438 H 52.71864622147501 39.39187006984962 28.461390151571443 H 0.0 **** 0.06
25439 H 51.370861677590824 40.39780741057811 29.045725034446406 H 0.0 **** 0.06
25440 H 52.86916934641317 41.16594636959974 28.468700826819507 H 0.0 **** 0.06
25441 C 59.056771612827134 86.85881778172046 19.75987071444149 C 0.0 **** -0.24
25442 H 59.59890295656514 85.91260938496282 19.747867752886094 H 0.0 **** 0.06
25443 H 58.43438559164307 86.93275137979674 18.868205875419903 H 0.0 **** 0.06
25444 H 59.76948521217649 87.68427497650129 19.775508847095438 H 0.0 **** 0.06
25445 H 58.427279438736996 86.90468807893114 20.648449490938646 H 0.0 **** 0.06
25446 C 97.32080613751343 95.59691004816526 58.70163724743588 C 0.0 **** -0.24
25447 H 97.35279509631384 95.392157990935 59.77159940397485 H 0.0 **** 0.06
25448 H 97.11130585848836 94.67405042296068 58.16149982313567 H 0.0 **** 0.06
25449 H 98.28329962906287 95.9956377539535 58.37978126924622 H 0.0 **** 0.06
25450 H 96.5379323385095 96.32583470307691 58.49441237699557 H 0.0 **** 0.06
25451 C 36.6083723026056 104.62399081523158 59.047190959966784 C 0.0 **** -0.24
25452 H 37.41691436381899 105.1643372302053 59.53994976520218 H 0.0 **** 0.06
25453 H 35.84573149548888 104.36341857585442 59.78239361003695 H 0.0 **** 0.06
25454 H 37.002667292952225 103.71469253230522 58.59402012840718 H 0.0 **** 0.06
25455 H 36.168904658222715 105.2548991804171 58.275491222092384 H 0.0 **** 0.06
25456 C 77.01066199380823 40.07589786582011 84.36685099164788 C 0.0 **** -0.24
25457 H 76.47310673873983 40.043903430624624 83.4187157279614 H 0.0 **** 0.06
25458 H 77.53833324639093 41.02507693896467 84.4538154077951 H 0.0 **** 0.06
25459 H 77.7290547143212 39.2563282289361 84.40488121410402 H 0.0 **** 0.06
25460 H 76.30237451241125 39.97658076856965 85.18975907907634 H 0.0 **** 0.06
25461 C 12.50353332498375 30.783709465234267 69.45936173491458 C 0.0 **** -0.24
25462 H 11.685967926434259 30.717178529591934 68.7423581598065 H 0.0 **** 0.06
25463 H 13.367161711891342 30.23908111886911 69.07729927574962 H 0.0 **** 0.06
25464 H 12.189663757873134 30.348926236390128 70.40854569525278 H 0.0 **** 0.06
25465 H 12.770857097374517 31.829521020981957 69.61056662755698 H 0.0 **** 0.06
25466 C 19.477216283789687 38.35216167096684 69.11023391613138 C 0.0 **** -0.24
25467 H 19.862133390214694 37.37098900512916 69.38718106910167 H 0.0 **** 0.06
25468 H 20.256207969065144 39.10128686530999 69.25400164052793 H 0.0 **** 0.06
25469 H 18.618723500408066 38.595507273466296 69.7368939770893 H 0.0 **** 0.06
25470 H 19.172044448561962 38.341196400887895 68.06421163580521 H 0.0 **** 0.06
25471 C 78.92031832024804 12.807920538339026 50.61308567013117 C 0.0 **** -0.24
25472 H 77.95634446542476 12.610799372246309 51.083737835704454 H 0.0 **** 0.06
25473 H 78.88533220245267 13.772083749231122 50.10530812555487 H 0.0 **** 0.06
25474 H 79.1376113791224 12.021842781426091 49.88892112312064 H 0.0 **** 0.06
25475 H 79.69973325407346 12.825288348033475 51.3747591195264 H 0.0 **** 0.06
25476 C 18.64600034586431 17.964110694746466 10.96793898137301 C 0.0 **** -0.24
25477 H 18.354628725755447 18.9136194806062 11.416582891859775 H 0.0 **** 0.06
25478 H 17.782249631536445 17.514683310585838 10.47771711835199 H 0.0 **** 0.06
25479 H 19.013843606452042 17.293199844491824 11.743442453154387 H 0.0 **** 0.06
25480 H 19.43225771221688 18.136528087285 10.232815631133946 H 0.0 **** 0.06
25481 C 54.31712183295565 10.246689631189497 21.126333372084616 C 0.0 **** -0.24
25482 H 54.21264166038816 9.417136060678274 21.826228750349628 H 0.0 **** 0.06
25483 H 55.3648171949456 10.544730686538685 21.07113589129662 H 0.0 **** 0.06
25484 H 53.71776820921721 11.089118769705209 21.47021425985909 H 0.0 **** 0.06
25485 H 53.97497098104293 9.935015444535836 20.140099796575896 H 0.0 **** 0.06
25486 C 31.24936195380792 104.2399900474066 82.29442609482827 C 0.0 **** -0.24
25487 H 30.226635171137417 103.89499416151465 82.44895938326454 H 0.0 **** 0.06
25488 H 31.234569262629805 105.20084837577662 81.77906386367223 H 0.0 **** 0.06
25489 H 31.789731085027398 103.51165026215193 81.68966903917287 H 0.0 **** 0.06
25490 H 31.74538626083583 104.35066000445065 83.25880143127539 H 0.0 **** 0.06
25491 C 10.790829442980538 15.998950330174381 94.8774544451532 C 0.0 **** -0.24
25492 H 9.707658068192984 16.02230726890977 94.75662823428493 H 0.0 **** 0.06
25493 H 11.04265490856423 16.137285288445838 95.92983280108795 H 0.0 **** 0.06
25494 H 11.240282168682512 16.797817860242503 94.28758017815193 H 0.0 **** 0.06
25495 H 11.173597110230475 15.036102865895089 94.53575498955453 H 0.0 **** 0.06
25496 C 23.230826806416758 60.73615963221857 83.78700328606192 C 0.0 **** -0.24
25497 H 23.479783006455477 61.797343024022666 83.78034349817807 H 0.0 **** 0.06
25498 H 22.156479780433813 60.6159302310715 83.92681421817963 H 0.0 **** 0.06
25499 H 23.762291052875753 60.243407691564414 84.60190209735669 H 0.0 **** 0.06
25500 H 23.525879324169466 60.28757178379948 82.83818944366021 H 0.0 **** 0.06
25501 C 92.5855392914593 8.083281541147372 47.42978624002827 C 0.0 **** -0.24
25502 H 91.59471205293578 8.503662861150246 47.259402466836015 H 0.0 **** 0.06
25503 H 93.33503651398459 8.869777693961211 47.337376906131524 H 0.0 **** 0.06
25504 H 92.78224620525941 7.3047056234421035 46.69316447059259 H 0.0 **** 0.06
25505 H 92.63034845228405 7.654440448760937 48.431583254958205 H 0.0 **** 0.06
25506 C 39.8036975094073 73.68264676279205 42.37640640002192 C 0.0 **** -0.24
25507 H 38.83132898663155 73.22089366639892 42.54386444882195 H 0.0 **** 0.06
25508 H 40.42596259704783 73.5496463106787 43.26153395289535 H 0.0 **** 0.06
25509 H 39.672519686373164 74.74709667246097 42.18147946976936 H 0.0 **** 0.06
25510 H 40.28650943991386 73.21375487824969 41.518847780573196 H 0.0 **** 0.06
25511 C 107.02936115506503 34.65126944542871 55.08979801961436 C 0.0 **** -0.24
25512 H 106.16392494026451 33.99074211750272 55.14414454991487 H 0.0 **** 0.06
25513 H 106.91459121780088 35.331503553707805 54.245590595422016 H 0.0 **** 0.06
25514 H 107.93189771664817 34.055135332532416 54.956544178272225 H 0.0 **** 0.06
25515 H 107.10645550068054 35.226242362209746 56.01216849752262 H 0.0 **** 0.06
25516 C 105.85783819136326 57.63205104239739 45.79361846088715 C 0.0 **** -0.24
25517 H 105.6292729949334 56.95775149621957 44.96772085745373 H 0.0 **** 0.06
25518 H 106.20228009877243 58.587222082342294 45.3983770869553 H 0.0 **** 0.06
25519 H 106.63721271157601 57.19238281287238 46.4158530848278 H 0.0 **** 0.06
25520 H 104.96061798447559 57.788609946700774 46.39286295779198 H 0.0 **** 0.06
25521 C 13.832031840198724 9.58875798616582 17.243657147782912 C 0.0 **** -0.24
25522 H 13.781991255509467 10.44861560013179 16.57507237851649 H 0.0 **** 0.06
25523 H 13.073907669632888 9.688799730279367 18.02058258619951 H 0.0 **** 0.06
25524 H 14.81952388695862 9.543199265363402 17.703551291375156 H 0.0 **** 0.06
25525 H 13.652485616228745 8.676108281637903 16.675727238049607 H 0.0 **** 0.06
25526 C 2.7470283431051 70.51907886699414 59.62180562861266 C 0.0 **** -0.24
25527 H 3.8296817613528447 70.56766799033193 59.7388970895509 H 0.0 **** 0.06
25528 H 2.449836181696 69.4899834433679 59.41792281523038 H 0.0 **** 0.06
25529 H 2.4431589864299497 71.15599053828878 58.7911843792528 H 0.0 **** 0.06
25530 H 2.266597590340993 70.86193537623616 60.53816605800597 H 0.0 **** 0.06
25531 C 80.72749523164823 39.157890003323075 49.495444362907165 C 0.0 **** -0.24
25532 H 80.40164812263862 40.042285564156884 50.043145828743604 H 0.0 **** 0.06
25533 H 80.07605021144805 38.31819881715512 49.74256771560147 H 0.0 **** 0.06
25534 H 81.75316435223044 38.91519130125346 49.77410356231877 H 0.0 **** 0.06
25535 H 80.6778814724021 39.35368306559877 48.42453434781456 H 0.0 **** 0.06
25536 C 103.74049624239598 55.95837033898897 74.74669763043057 C 0.0 **** -0.24
25537 H 104.68132040219336 55.51746733668608 75.07787315942934 H 0.0 **** 0.06
25538 H 103.02975100182653 55.16518127068156 74.51500164192417 H 0.0 **** 0.06
25539 H 103.9167983723454 56.56135087338879 73.85638660239665 H 0.0 **** 0.06
25540 H 103.33773933936976 56.58925629043233 75.53843210195254 H 0.0 **** 0.06
25541 C 40.442755059910255 94.92269513582585 87.53168631741221 C 0.0 **** -0.24
25542 H 39.56496294398761 95.34457064306022 88.02010799657279 H 0.0 **** 0.06
25543 H 41.343908221316134 95.35729727830082 87.965482054051 H 0.0 **** 0.06
25544 H 40.408688790701596 95.1459322406709 86.46541646073013 H 0.0 **** 0.06
25545 H 40.45446168465287 93.84199483218245 87.67589997104562 H 0.0 **** 0.06
25546 C 106.19342880520794 85.19603204312762 85.27876830449236 C 0.0 **** -0.24
25547 H 107.06915739206093 84.55447352962307 85.37341932262382 H 0.0 **** 0.06
25548 H 105.29045659459591 84.6006793530421 85.41359073189517 H 0.0 **** 0.06
25549 H 106.18327961476923 85.65319395464229 84.28975785505361 H 0.0 **** 0.06
25550 H 106.23194237241262 85.97697890947012 86.0398251702187 H 0.0 **** 0.06
25551 C 38.65331216883226 84.51117128204993 35.93333382961062 C 0.0 **** -0.24
25552 H 38.27233918069956 83.6193857286325 35.435928735848556 H 0.0 **** 0.06
25553 H 38.56222511670478 84.39202034059258 37.01266274185094 H 0.0 **** 0.06
25554 H 38.075918341171985 85.37931400319133 35.61426431772454 H 0.0 **** 0.06
25555 H 39.70100770328048 84.65464043202866 35.66927437501299 H 0.0 **** 0.06
25556 C 32.24068705952223 50.29684372218433 41.03520191761078 C 0.0 **** -0.24
25557 H 32.73823492686492 49.35448241235362 41.26188221433276 H 0.0 **** 0.06
25558 H 32.38453175211569 50.54060609228753 39.98231665696272 H 0.0 **** 0.06
25559 H 32.66291125141393 51.088549192338576 41.65297925822071 H 0.0 **** 0.06
25560 H 31.174469254117895 50.20326367103736 41.244634877010384 H 0.0 **** 0.06
25561 C 78.63095010331757 18.6798705609948 106.98205022370053 C 0.0 **** -0.24
25562 H 79.44965050264769 19.13260643399522 107.54167745080662 H 0.0 **** 0.06
25563 H 78.5809980743925 19.124937479566142 105.98803513734877 H 0.0 **** 0.06
25564 H 77.69208572582436 18.853963892746236 107.50583531790396 H 0.0 **** 0.06
25565 H 78.80397148972409 17.60708218112623 106.89071306532095 H 0.0 **** 0.06
25566 C 94.70418210187165 86.0873085775654 13.116463520326036 C 0.0 **** -0.24
25567 H 95.66848225632248 85.58221773375138 13.06170790203565 H 0.0 **** 0.06
25568 H 93.90914160461693 85.34465476786868 13.198388917682536 H 0.0 **** 0.06
25569 H 94.55439307295578 86.68331965898793 12.216639797854072 H 0.0 **** 0.06
25570 H 94.68455854033132 86.73820420625488 13.991414149157222 H 0.0 **** 0.06
25571 C 52.842118244346786 22.202827117952268 61.296781219437435 C 0.0 **** -0.24
25572 H 52.54667482641408 21.4235456997136 60.59459651011812 H 0.0 **** 0.06
25573 H 52.26435483782679 23.105881648619572 61.10102456132904 H 0.0 **** 0.06
25574 H 53.90370035867856 22.41675080406617 61.17655744417928 H 0.0 **** 0.06
25575 H 52.651923248956905 21.863712972110477 62.31577104397172 H 0.0 **** 0.06
25576 C 74.44195626547358 4.046359544756029 2.73371305164315 C 0.0 **** -0.24
25577 H 74.65414598673604 3.655602819196318 1.738122033031516 H 0.0 **** 0.06
25578 H 75.25604155318752 4.699946890825274 3.048137113884337 H 0.0 **** 0.06
25579 H 74.34723435444477 3.2186979946258276 3.4363401423420186 H 0.0 **** 0.06
25580 H 73.50971429858242 4.611627149035186 2.7101708447395083 H 0.0 **** 0.06
25581 C 56.03287120008821 95.52574150036929 11.152221254511812 C 0.0 **** -0.24
25582 H 57.05755725701084 95.48984487039351 10.781840820300655 H 0.0 **** 0.06
25583 H 56.03544914029274 95.42185435861461 12.236950950962932 H 0.0 **** 0.06
25584 H 55.45926370111491 94.71120335815061 10.709707080109471 H 0.0 **** 0.06
25585 H 55.5806502484204 96.47879555355894 10.87885906581143 H 0.0 **** 0.06
25586 C 105.4051864508861 30.699342544274103 7.400675548561765 C 0.0 **** -0.24
25587 H 106.29150414512577 30.172814987420793 7.757339962153679 H 0.0 **** 0.06
25588 H 105.00791378173255 30.188896298454864 6.5236939313973465 H 0.0 **** 0.06
25589 H 105.67401090428683 31.72219203109556 7.136098354221815 H 0.0 **** 0.06
25590 H 104.65071481579344 30.71365002591918 8.18712616446743 H 0.0 **** 0.06
25591 C 77.56815005455381 28.140043383598737 94.60910585942416 C 0.0 **** -0.24
25592 H 76.82457095320599 27.57573670712327 95.17213768755545 H 0.0 **** 0.06
25593 H 77.06614506015973 28.87726174448335 93.9819528941346 H 0.0 **** 0.06
25594 H 78.14239144992777 27.45794688733048 93.98120779458037 H 0.0 **** 0.06
25595 H 78.23934020680076 28.647253238972866 95.30216261978198 H 0.0 **** 0.06
25596 C 38.66184080000469 19.350386050529863 109.12036610907774 C 0.0 **** -0.24
25597 H 37.954810705530306 19.727294094078957 109.85934750335895 H 0.0 **** 0.06
25598 H 39.60101277843098 19.89804035764905 109.20500379815775 H 0.0 **** 0.06
25599 H 38.249280501646254 19.487764772502572 108.12150938614468 H 0.0 **** 0.06
25600 H 38.84129503706463 18.290170707890297 109.29705030306275 H 0.0 **** 0.06
25601 C 63.47651431984744 50.497031451669585 105.46318073790495 C 0.0 **** -0.24
25602 H 64.26006623284479 51.16315301086212 105.82402722701069 H 0.0 **** 0.06
25603 H 62.857015243248554 50.17792689764843 106.30174018360978 H 0.0 **** 0.06
25604 H 63.930195277918756 49.624166898589436 104.9929182256679 H 0.0 **** 0.06
25605 H 62.859512552062284 51.02252183716075 104.73461750686658 H 0.0 **** 0.06
25606 C 18.403268217708654 62.81561813731298 28.64634568626861 C 0.0 **** -0.24
25607 H 18.390548641622352 63.30737406288307 29.619322603956135 H 0.0 **** 0.06
25608 H 18.356590941902624 61.7354561063525 28.786292001881122 H 0.0 **** 0.06
25609 H 19.322639306047027 63.07413424434111 28.120509228792685 H 0.0 **** 0.06
25610 H 17.544278737579127 63.14428488255447 28.06181514973209 H 0.0 **** 0.06
25611 C 10.869970154354434 4.544615901849966 72.32381283900651 C 0.0 **** -0.24
25612 H 10.32795147024683 4.600904879783116 71.37979958200796 H 0.0 **** 0.06
25613 H 11.368271060430061 3.5778268643231286 72.39941658086012 H 0.0 **** 0.06
25614 H 10.16997756968783 4.6586783330890285 73.15158024583816 H 0.0 **** 0.06
25615 H 11.613297747099523 5.341197607070853 72.36354237989961 H 0.0 **** 0.06
25616 C 91.46041934879254 8.05569708576914 52.63162987350324 C 0.0 **** -0.24
25617 H 90.84092821895725 7.9063203445824115 53.515525242528895 H 0.0 **** 0.06
25618 H 92.49050515954036 8.239697931825106 52.93651613456211 H 0.0 **** 0.06
25619 H 91.0888441591568 8.910817102100452 52.06751965506197 H 0.0 **** 0.06
25620 H 91.41997846831677 7.163320566092466 52.00552644088896 H 0.0 **** 0.06
25621 C 36.07997702226132 33.055975658624234 78.22825588088679 C 0.0 **** -0.24
25622 H 35.180196145149836 33.22344372422992 77.63555478052905 H 0.0 **** 0.06
25623 H 36.30558404304426 31.988913019355124 78.2530274373205 H 0.0 **** 0.06
25624 H 35.91893952552377 33.41845475340057 79.24293095267228 H 0.0 **** 0.06
25625 H 36.91526580187923 33.5939659282115 77.77864169500157 H 0.0 **** 0.06
25626 C 18.833560089034165 57.44541137127942 50.71462083340943 C 0.0 **** -0.24
25627 H 18.927789444791898 57.951603723489114 49.75423349996376 H 0.0 **** 0.06
25628 H 17.87675048951226 57.70528875797271 51.1697218862077 H 0.0 **** 0.06
25629 H 19.64549119061317 57.757634557799065 51.371250324500714 H 0.0 **** 0.06
25630 H 18.882804751718282 56.36695250619931 50.56327623834259 H 0.0 **** 0.06
25631 C 23.257978971902446 12.528663301903322 61.462082575499096 C 0.0 **** -0.24
25632 H 23.249807200647012 11.447834241610877 61.326128804133816 H 0.0 **** 0.06
25633 H 23.065031703854828 13.016063033826526 60.50656513992578 H 0.0 **** 0.06
25634 H 24.232441116861224 12.840376548809886 61.83942481157129 H 0.0 **** 0.06
25635 H 22.484635866246663 12.81037938336587 62.176211546365096 H 0.0 **** 0.06
25636 C 99.00631582620235 89.04087136981002 105.21424689376403 C 0.0 **** -0.24
25637 H 99.61486054527347 88.50668561713326 104.48470208433082 H 0.0 **** 0.06
25638 H 99.6022435643423 89.2489754789523 106.10217227318515 H 0.0 **** 0.06
25639 H 98.14683245244782 88.42839879629037 105.48843561439867 H 0.0 **** 0.06
25640 H 98.65918114942639 89.97881181942722 104.78066764249593 H 0.0 **** 0.06
25641 C 38.198012126293236 73.82769034587517 6.714895120162183 C 0.0 **** -0.24
25642 H 39.030639028959115 73.28111448144443 7.158660868396126 H 0.0 **** 0.06
25643 H 37.51248118648712 74.14556477950207 7.500496743141227 H 0.0 **** 0.06
25644 H 37.671358720947296 73.17902785613425 6.013650522517793 H 0.0 **** 0.06
25645 H 38.5775777453313 74.70222584757921 6.186752796050143 H 0.0 **** 0.06
25646 C 8.300156314197949 47.95062599939755 6.412837985609199 C 0.0 **** -0.24
25647 H 8.503130460745354 46.92484393495181 6.103462104069148 H 0.0 **** 0.06
25648 H 7.394998627706968 47.973724800224346 7.019640043341971 H 0.0 **** 0.06
25649 H 8.16252437751217 48.575467163900335 5.530410822537155 H 0.0 **** 0.06
25650 H 9.140284295866692 48.32652288269687 6.9963833703139695 H 0.0 **** 0.06
25651 C 55.88948879020387 29.22245587108013 91.50601251493812 C 0.0 **** -0.24
25652 H 56.410530651934984 28.86419511806711 92.39351987428944 H 0.0 **** 0.06
25653 H 55.19152035461644 28.458717974501965 91.16206447688658 H 0.0 **** 0.06
25654 H 56.6145294893925 29.43193690472269 90.71888707090505 H 0.0 **** 0.06
25655 H 55.34267026606408 30.133710565552164 91.74740450586414 H 0.0 **** 0.06
25656 C 69.35292853764355 43.38042036186391 52.51723907384337 C 0.0 **** -0.24
25657 H 69.37936089367204 43.324972325974215 53.605458064756874 H 0.0 **** 0.06
25658 H 68.84971112784928 42.49769380254878 52.12140597418437 H 0.0 **** 0.06
25659 H 70.37170235822518 43.42116478427039 52.131424945122376 H 0.0 **** 0.06
25660 H 68.81101934497394 44.275202553801705 52.21207525939661 H 0.0 **** 0.06
25661 C 96.2153534768403 55.270655796629455 64.40555364635551 C 0.0 **** -0.24
25662 H 96.59294433886876 56.25064796881827 64.11430942054413 H 0.0 **** 0.06
25663 H 96.71817525374348 54.94365748507397 65.31544983542733 H 0.0 **** 0.06
25664 H 96.40850924592274 54.55510788625884 63.60554937757341 H 0.0 **** 0.06
25665 H 95.14166626466482 55.33358388748252 64.5852189042643 H 0.0 **** 0.06
25666 C 29.518395454943175 69.03363063968277 27.60813525221124 C 0.0 **** -0.24
25667 H 28.927271452471317 69.21155460498471 28.506597393276365 H 0.0 **** 0.06
25668 H 30.575275693494078 69.18239847447904 27.833615003636623 H 0.0 **** 0.06
25669 H 29.21162424890995 69.7293430255902 26.827678724595444 H 0.0 **** 0.06
25670 H 29.360452524664964 68.01046301487946 27.26673111076076 H 0.0 **** 0.06
25671 C 58.48574210334263 7.260111690749497 12.476663827629324 C 0.0 **** -0.24
25672 H 58.17718303562141 6.367437590494987 11.93250117861625 H 0.0 **** 0.06
25673 H 57.84313630395151 7.394068458022645 13.347857371840206 H 0.0 **** 0.06
25674 H 58.401708375309724 8.12902133389376 11.824838668536032 H 0.0 **** 0.06
25675 H 59.51992340288946 7.147700504317328 12.801663029153644 H 0.0 **** 0.06
25676 C 31.347977401542835 109.66705886570796 25.626274546479067 C 0.0 **** -0.24
25677 H 32.4125776227302 109.8958138266722 25.679296139642588 H 0.0 **** 0.06
25678 H 30.793677728593536 110.37118748143372 26.246262016548485 H 0.0 **** 0.06
25679 H 31.17664598867762 108.65224046648547 25.98573791255373 H 0.0 **** 0.06
25680 H 31.010957238092118 109.74797201817996 24.59340468777947 H 0.0 **** 0.06
25681 C 5.952898422911915 2.431767763123517 5.712474130152984 C 0.0 **** -0.24
25682 H 6.322920858581654 2.788746611524658 6.6740474630204005 H 0.0 **** 0.06
25683 H 5.400623912611138 3.23042738213465 5.217240436899971 H 0.0 **** 0.06
25684 H 5.295296339365677 1.5770288817445106 5.8712465536219725 H 0.0 **** 0.06
25685 H 6.795748913472977 2.1315153086730447 5.089260452321952 H 0.0 **** 0.06
25686 C 23.332395411672135 83.67753006383896 44.311483867761865 C 0.0 **** -0.24
25687 H 23.01433827370655 84.44370913516775 45.01811884448705 H 0.0 **** 0.06
25688 H 24.34688726787126 83.35777427459033 44.554883478193176 H 0.0 **** 0.06
25689 H 23.31329529582063 84.08479692625073 43.30031936610419 H 0.0 **** 0.06
25690 H 22.65788034026568 82.82387831369536 44.37239203201972 H 0.0 **** 0.06
25691 C 35.7783011095992 6.883011633751025 68.25187038916633 C 0.0 **** -0.24
25692 H 35.812054711785436 6.922522025726977 67.1639585076029 H 0.0 **** 0.06
25693 H 36.78875200136406 6.985761875643362 68.65016452758837 H 0.0 **** 0.06
25694 H 35.35799586893296 5.928152155676699 68.56777483504253 H 0.0 **** 0.06
25695 H 35.15536570854144 7.695704202069479 68.62661436835634 H 0.0 **** 0.06
25696 C 31.70964643691252 57.566501763947215 97.57614429065255 C 0.0 **** -0.24
25697 H 31.339922734627635 56.548688555043135 97.45060384905656 H 0.0 **** 0.06
25698 H 31.651364589848185 58.094202013304184 96.62309523173755 H 0.0 **** 0.06
25699 H 32.74639536551399 57.53744657509753 97.9119883109884 H 0.0 **** 0.06
25700 H 31.102069955380443 58.08513791001145 98.31705794806962 H 0.0 **** 0.06
25701 C 21.272814932981902 96.97757254752275 24.179440796300867 C 0.0 **** -0.24
25702 H 20.752820585015 97.44994377830179 23.34511885209639 H 0.0 **** 0.06
25703 H 21.334094480973505 95.90271594036994 24.006299609792563 H 0.0 **** 0.06
25704 H 20.724497104401507 97.16575503027605 25.102208165030163 H 0.0 **** 0.06
25705 H 22.277520577580532 97.39095418646059 24.26248220403852 H 0.0 **** 0.06
25706 C 24.775234168634896 91.04811883528379 87.06597315328591 C 0.0 **** -0.24
25707 H 24.596031515326022 91.97243459489869 86.51671135747657 H 0.0 **** 0.06
25708 H 24.103270317413006 90.27110889665107 86.70053382034227 H 0.0 **** 0.06
25709 H 24.593258586796054 91.21629960518624 88.12717474591116 H 0.0 **** 0.06
25710 H 25.80825628353031 90.73354831805182 86.91985539842341 H 0.0 **** 0.06
25711 C 32.287748102597 13.877043182940383 75.39562440307306 C 0.0 **** -0.24
25712 H 31.54631059627563 13.166393676520215 75.02848477365436 H 0.0 **** 0.06
25713 H 33.285901323268476 13.535134352484874 75.12011345493038 H 0.0 **** 0.06
25714 H 32.214700726200626 13.948380968582342 76.48130335390053 H 0.0 **** 0.06
25715 H 32.10244645664809 14.85510042571616 74.95374776262196 H 0.0 **** 0.06
25716 C 92.7719925648438 52.689042899258496 96.71896778936423 C 0.0 **** -0.24
25717 H 92.56807138514466 51.9402014309225 97.4843156446996 H 0.0 **** 0.06
25718 H 93.30127734522245 53.53071316732054 97.16683223844588 H 0.0 **** 0.06
25719 H 91.83142851268639 53.03615163394547 96.29223194724187 H 0.0 **** 0.06
25720 H 93.38721690286738 52.24923351321188 95.93421850924325 H 0.0 **** 0.06
25721 C 28.180035851814452 82.16801604165116 41.87444385548281 C 0.0 **** -0.24
25722 H 27.627924326151458 81.84822012019426 40.990526903004294 H 0.0 **** 0.06
25723 H 28.734432300113667 81.32269029840592 42.28295056682427 H 0.0 **** 0.06
25724 H 27.48067142701251 82.53941900365187 42.62379690776636 H 0.0 **** 0.06
25725 H 28.8747390580578 82.96221776126589 41.60084776326886 H 0.0 **** 0.06
25726 C 88.01880275437937 18.858850942222844 71.63168573828779 C 0.0 **** -0.24
25727 H 87.11929750457548 19.23322761327813 71.14288603486656 H 0.0 **** 0.06
25728 H 87.93011029730263 17.78189495282234 71.77970348220691 H 0.0 **** 0.06
25729 H 88.13881402933916 19.3499510664048 72.59675497688309 H 0.0 **** 0.06
25730 H 88.88593477876996 19.069827951801003 71.00577481005934 H 0.0 **** 0.06
25731 C 35.71070906740897 63.70986247747453 42.996754364706874 C 0.0 **** -0.24
25732 H 35.05165034215031 64.31537315672938 43.619376379872165 H 0.0 **** 0.06
25733 H 36.050351795552444 62.843122957191326 43.56424901687916 H 0.0 **** 0.06
25734 H 36.57071547078726 64.3052135364295 42.691823584120016 H 0.0 **** 0.06
25735 H 35.169023509391195 63.37548354500382 42.11242570653218 H 0.0 **** 0.06
25736 C 9.200055367472231 48.69979404743424 23.13385589058305 C 0.0 **** -0.24
25737 H 8.598531987427648 48.20251019202175 23.89471732253449 H 0.0 **** 0.06
25738 H 9.549180671205463 47.963212352663504 22.408432020950897 H 0.0 **** 0.06
25739 H 10.057208669027247 49.1806894975482 23.60480546170973 H 0.0 **** 0.06
25740 H 8.595375429865769 49.45154867984735 22.62623704248645 H 0.0 **** 0.06
25741 C 67.16371547003376 19.44502016976475 66.44124925952354 C 0.0 **** -0.24
25742 H 66.41334109942738 19.502052635852525 67.22917202539226 H 0.0 **** 0.06
25743 H 67.08646406215041 20.32452946722132 65.801210666701 H 0.0 **** 0.06
25744 H 66.99708971921393 18.54637583960543 65.84505542101945 H 0.0 **** 0.06
25745 H 68.15702650913028 19.405187701747156 66.88746809461348 H 0.0 **** 0.06
25746 C 0.24543618387060917 67.89427522091444 57.22470736091711 C 0.0 **** -0.24
25747 H -0.22835145403726642 66.91247504527036 57.25926884790056 H 0.0 **** 0.06
25748 H -0.3700616645208754 68.5736448097935 56.634165962486776 H 0.0 **** 0.06
25749 H 1.2310666066067455 67.80630910388254 56.767013802638104 H 0.0 **** 0.06
25750 H 0.3479377832251629 68.28334148134525 58.23700253743863 H 0.0 **** 0.06
25751 C 88.08071671438944 105.27468638182839 30.123041957994076 C 0.0 **** -0.24
25752 H 89.0282630582517 104.76487351985976 30.299335861750933 H 0.0 **** 0.06
25753 H 88.15479058422562 106.30680978588433 30.4662839956801 H 0.0 **** 0.06
25754 H 87.2873126493341 104.76544578785061 30.669378574394983 H 0.0 **** 0.06
25755 H 87.85471449393498 105.2610953409719 29.05625984751825 H 0.0 **** 0.06
25756 C 65.0558673823474 13.59148832936549 31.716440678799756 C 0.0 **** -0.24
25757 H 64.33899395323806 14.050049778873074 32.39736108691204 H 0.0 **** 0.06
25758 H 65.93587131267157 13.273363045099018 32.2758181350693 H 0.0 **** 0.06
25759 H 65.34975382612976 14.316312731242746 30.956718942027265 H 0.0 **** 0.06
25760 H 64.59819293379252 12.727319217551837 31.235250943053927 H 0.0 **** 0.06
25761 C 15.16843995128258 107.95812554889199 1.5239563914603877 C 0.0 **** -0.24
25762 H 14.239721105027485 107.95425711983822 2.094136230049969 H 0.0 **** 0.06
25763 H 15.851390593794697 108.694541295937 1.9489329333231353 H 0.0 **** 0.06
25764 H 14.956457235386 108.21503840321546 0.4862146931222924 H 0.0 **** 0.06
25765 H 15.626729509906191 106.97002105103243 1.5674756074387801 H 0.0 **** 0.06
25766 C 108.76606998132678 3.812499718039419 53.20157064767233 C 0.0 **** -0.24
25767 H 108.50379437772352 2.8504858641877604 53.642377417159935 H 0.0 **** 0.06
25768 H 108.54955524534955 4.609786724413823 53.91292467616006 H 0.0 **** 0.06
25769 H 108.18406518567082 3.967388035919555 52.29364019545005 H 0.0 **** 0.06
25770 H 109.82909950250007 3.8222813945324106 52.95727293280976 H 0.0 **** 0.06
25771 C 96.19632926628775 104.5992591439807 55.93243193304234 C 0.0 **** -0.24
25772 H 96.0542978091211 103.5358518036828 56.12559672416943 H 0.0 **** 0.06
25773 H 97.26269277435247 104.82467055105506 55.90650272720378 H 0.0 **** 0.06
25774 H 95.72073552863205 105.178619838109 56.723110413966744 H 0.0 **** 0.06
25775 H 95.7464510231381 104.85606383204706 54.97335599575141 H 0.0 **** 0.06
25776 C 56.69627722281439 95.69768405157477 45.968127492303246 C 0.0 **** -0.24
25777 H 57.20232882671843 95.22642662984781 45.12563301652793 H 0.0 **** 0.06
25778 H 57.16781270393585 95.38001956484653 46.89864151502991 H 0.0 **** 0.06
25779 H 55.64750542581686 95.40077495582482 45.97264835813635 H 0.0 **** 0.06
25780 H 56.7664508879833 96.78069072292767 45.875624238626486 H 0.0 **** 0.06
25781 C 10.288405174869723 12.04247248052775 76.78880451326495 C 0.0 **** -0.24
25782 H 9.699844206475348 11.312589886042474 76.23223901261281 H 0.0 **** 0.06
25783 H 9.683035713907458 12.930332594519882 76.97490671857679 H 0.0 **** 0.06
25784 H 11.168840712090912 12.317471881575841 76.20864394103899 H 0.0 **** 0.06
25785 H 10.599578343435468 11.608980627045582 77.7388412305848 H 0.0 **** 0.06
25786 C 87.9189137370945 67.72717883628401 74.48859205693981 C 0.0 **** -0.24
25787 H 89.0071913117163 67.6585602279195 74.51416977775807 H 0.0 **** 0.06
25788 H 87.55945680516777 68.13746463181938 75.43309726541719 H 0.0 **** 0.06
25789 H 87.49686117498337 66.73309824853008 74.3397929644974 H 0.0 **** 0.06
25790 H 87.61491053542059 68.377731198796 73.66900900984291 H 0.0 **** 0.06
25791 C 107.42089737868423 44.74207912129296 3.232427344303545 C 0.0 **** -0.24
25792 H 107.85017502245624 45.285700687931865 2.390689237823267 H 0.0 **** 0.06
25793 H 106.4446923116909 44.347501483333076 2.9496113011814487 H 0.0 **** 0.06
25794 H 107.3085203890379 45.41686811891782 4.081605771636504 H 0.0 **** 0.06
25795 H 108.08100144239121 43.91932705600311 3.5073644339721284 H 0.0 **** 0.06
25796 C 84.47470325553812 27.268383128202288 77.8221539746221 C 0.0 **** -0.24
25797 H 83.85882765516942 28.107936584752736 78.14504247812704 H 0.0 **** 0.06
25798 H 84.90027139666648 26.773277362635028 78.69485424214383 H 0.0 **** 0.06
25799 H 85.2793422105504 27.633158438097155 77.18343269298543 H 0.0 **** 0.06
25800 H 83.8611645229594 26.55976846518236 77.26532523890626 H 0.0 **** 0.06
25801 C 110.40072977287574 50.479844949508994 71.27066388316572 C 0.0 **** -0.24
25802 H 109.36500728804782 50.45595575362075 71.60964172508764 H 0.0 **** 0.06
25803 H 110.449379044745 50.94457600911616 70.28527001027885 H 0.0 **** 0.06
25804 H 110.78810589399143 49.463004861981084 71.21206630171048 H 0.0 **** 0.06
25805 H 110.99997578702715 51.05695739613462 71.97493242043103 H 0.0 **** 0.06
25806 C 15.545869249927968 74.13869315665485 90.80630411342891 C 0.0 **** -0.24
25807 H 15.725317488200417 73.0756495342408 90.64314665056823 H 0.0 **** 0.06
25808 H 15.974823859968211 74.43594012347981 91.76341953560822 H 0.0 **** 0.06
25809 H 14.47321451645643 74.32865161655306 90.81303229554565 H 0.0 **** 0.06
25810 H 16.012313375189223 74.71178199736383 90.00482061126884 H 0.0 **** 0.06
25811 C 101.63088820738972 72.88347821429807 79.314001887627 C 0.0 **** -0.24
25812 H 100.88702598902267 73.67601602023261 79.39212698149753 H 0.0 **** 0.06
25813 H 102.59205281644523 73.25135625253988 79.67528038832282 H 0.0 **** 0.06
25814 H 101.72680389764713 72.5768301896365 78.2722663557506 H 0.0 **** 0.06
25815 H 101.31868372380461 72.03063699719915 79.91599599523354 H 0.0 **** 0.06
25816 C 75.50126668036133 73.60818283265263 38.07351532130417 C 0.0 **** -0.24
25817 H 74.79951360864301 74.12839123076145 38.72515905917612 H 0.0 **** 0.06
25818 H 76.18237927582193 73.0092366235317 38.67872920458035 H 0.0 **** 0.06
25819 H 76.07137711125787 74.33802381327814 37.49891375568649 H 0.0 **** 0.06
25820 H 74.95159448499271 72.95834237919797 37.39242751121981 H 0.0 **** 0.06
25821 C 64.90033769929667 39.56707976734185 68.84647622017994 C 0.0 **** -0.24
25822 H 65.72598810781254 40.024539394204 68.30209511737907 H 0.0 **** 0.06
25823 H 64.08557639843714 39.35051253895591 68.15430320901238 H 0.0 **** 0.06
25824 H 64.54944258096626 40.25367803625764 69.61678794662562 H 0.0 **** 0.06
25825 H 65.2397635206991 38.64120857193859 69.31047336982942 H 0.0 **** 0.06
25826 C 38.44672616777535 94.36707426869224 31.23931171903277 C 0.0 **** -0.24
25827 H 39.13730138917322 93.88090868708974 30.54994995540477 H 0.0 **** 0.06
25828 H 38.45739152171787 93.8413437183466 32.19461450929467 H 0.0 **** 0.06
25829 H 37.439914971027804 94.34296952676485 30.82251452539097 H 0.0 **** 0.06
25830 H 38.753586809594864 95.40266831774004 31.390580731592877 H 0.0 **** 0.06
25831 C 52.627760794583274 46.463811585021176 86.15309719433226 C 0.0 **** -0.24
25832 H 51.80205656802112 46.9897179630534 86.6324548331474 H 0.0 **** 0.06
25833 H 53.40736979879643 47.17830628522801 85.8874359547173 H 0.0 **** 0.06
25834 H 52.2682524506363 45.9660943201581 85.25333726637918 H 0.0 **** 0.06
25835 H 53.03297731220711 45.721602318640166 86.84131136249316 H 0.0 **** 0.06
25836 C 39.63735858318727 85.93305011108464 47.83876169476502 C 0.0 **** -0.24
25837 H 40.59272862941003 86.18893413706397 48.298963027769744 H 0.0 **** 0.06
25838 H 38.8517079462431 86.55926710410209 48.26317441537367 H 0.0 **** 0.06
25839 H 39.41099468440138 84.88420681912672 48.03119838098682 H 0.0 **** 0.06
25840 H 39.696482369975286 86.10106090558321 46.763512202041184 H 0.0 **** 0.06
25841 C 69.84919950940736 71.88656204375769 72.17884073068056 C 0.0 **** -0.24
25842 H 70.16645875844063 72.02173908870168 73.21285401278563 H 0.0 **** 0.06
25843 H 70.54202964873772 71.21605890355886 71.67057833824668 H 0.0 **** 0.06
25844 H 69.84157334176524 72.85226970410457 71.67311619756637 H 0.0 **** 0.06
25845 H 68.84728138040737 71.45834182812317 72.15863634343673 H 0.0 **** 0.06
25846 C 75.20417264362197 65.45760140948117 106.09482375931144 C 0.0 **** -0.24
25847 H 74.57752941448621 65.6120247811845 106.97302043437915 H 0.0 **** 0.06
25848 H 76.14225428180157 65.99951306322076 106.21883335070774 H 0.0 **** 0.06
25849 H 74.68649452649606 65.82474443964414 105.2095802839409 H 0.0 **** 0.06
25850 H 75.41230679184025 64.39416108494093 105.9794133775076 H 0.0 **** 0.06
25851 C 100.01178316428316 66.35297695134602 57.19975273613164 C 0.0 **** -0.24
25852 H 99.45027598157426 67.13289103575653 56.68590313643381 H 0.0 **** 0.06
25853 H 100.3687438142239 65.62372247386938 56.472979938392655 H 0.0 **** 0.06
25854 H 99.36401374126451 65.85866953755345 57.92450699995163 H 0.0 **** 0.06
25855 H 100.86208339949833 66.79782273873963 57.71632939983118 H 0.0 **** 0.06
25856 C 110.65002060278383 4.905308142724849 93.50659827040211 C 0.0 **** -0.24
25857 H 109.5800548017859 4.712534132144256 93.42682289886767 H 0.0 **** 0.06
25858 H 110.84137753213282 5.541928542625058 94.37049509858726 H 0.0 **** 0.06
25859 H 110.99667491591161 5.406517381350227 92.60206474896393 H 0.0 **** 0.06
25860 H 111.18071027877428 3.9610913102354175 93.62508762979584 H 0.0 **** 0.06
25861 C 17.346947383170345 73.81114825978696 0.14288426506738006 C 0.0 **** -0.24
25862 H 17.8574546973243 74.24826486484815 -0.7161670522309294 H 0.0 **** 0.06
25863 H 18.014026214376003 73.10904096670805 0.6434059251981807 H 0.0 **** 0.06
25864 H 16.452908185810543 73.28640359345525 -0.1953356758738778 H 0.0 **** 0.06
25865 H 17.06342704469094 74.60218363551999 0.8364229692716094 H 0.0 **** 0.06
25866 C 52.04773128217792 77.58681872069542 8.67862085840153 C 0.0 **** -0.24
25867 H 52.183606057181855 76.65462122137183 8.131476878162545 H 0.0 **** 0.06
25868 H 52.36350500979967 77.44885332684811 9.71353405273642 H 0.0 **** 0.06
25869 H 50.99621508092072 77.87170177027906 8.654433578442365 H 0.0 **** 0.06
25870 H 52.64817406072421 78.36988262965778 8.215910255714377 H 0.0 **** 0.06
25871 C 34.57000195639901 0.7476461217353378 23.54066173094857 C 0.0 **** -0.24
25872 H 34.806244712142984 1.797724697683753 23.71937432893364 H 0.0 **** 0.06
25873 H 35.15498149936167 0.38382999562812525 22.695793986466043 H 0.0 **** 0.06
25874 H 33.50779599164929 0.6478311072255174 23.318020385746934 H 0.0 **** 0.06
25875 H 34.811908362591424 0.16467926614819195 24.429644686763424 H 0.0 **** 0.06
25876 C 33.53009715194335 57.047546254484814 8.078316333763263 C 0.0 **** -0.24
25877 H 34.09648370647338 57.522327282800745 8.879901020664011 H 0.0 **** 0.06
25878 H 33.967851355826625 56.07522246882036 7.8511611627708575 H 0.0 **** 0.06
25879 H 33.560356015340915 57.677688626300096 7.189529680016527 H 0.0 **** 0.06
25880 H 32.4948012134936 56.91601750431312 8.395510788806599 H 0.0 **** 0.06
25881 C 17.175498337447607 88.93861809989812 93.27012259107181 C 0.0 **** -0.24
25882 H 17.105323843105168 89.69352586959849 92.48739498857509 H 0.0 **** 0.06
25883 H 16.969263477734273 89.39810571819191 94.23748607549416 H 0.0 **** 0.06
25884 H 18.17923914301764 88.51416880279487 93.27651795295688 H 0.0 **** 0.06
25885 H 16.448567399137488 88.14911290411965 93.07989462240079 H 0.0 **** 0.06
25886 C 45.27625685323244 87.14868784638102 33.829760974058075 C 0.0 **** -0.24
25887 H 45.80233110083407 87.853972498314 34.47252075674197 H 0.0 **** 0.06
25888 H 45.94978975751275 86.33816422841284 33.552110830268674 H 0.0 **** 0.06
25889 H 44.93375610607899 87.66215204250955 32.93068558849953 H 0.0 **** 0.06
25890 H 44.41808061225419 86.74181562160405 34.36388476452939 H 0.0 **** 0.06
25891 C 69.27793100606658 81.95120255504317 105.28272992534937 C 0.0 **** -0.24
25892 H 68.90734127339394 82.15148256352416 106.28771344101139 H 0.0 **** 0.06
25893 H 69.71634270775928 82.85961573266546 104.87001768584219 H 0.0 **** 0.06
25894 H 68.45274092050666 81.6254801887727 104.65013530815551 H 0.0 **** 0.06
25895 H 70.0356041570331 81.16860296097191 105.32438339645248 H 0.0 **** 0.06
25896 C 54.216162612792886 60.238778394362626 37.03542736576429 C 0.0 **** -0.24
25897 H 54.84790890724216 60.13829396104114 36.152673579251996 H 0.0 **** 0.06
25898 H 54.66130078588924 60.961322305726895 37.719476367450454 H 0.0 **** 0.06
25899 H 54.13102385409272 59.27224862198452 37.53310635210843 H 0.0 **** 0.06
25900 H 53.22617520430535 60.5818936980818 36.736722666879245 H 0.0 **** 0.06
25901 C 19.520729862537678 29.771150507938273 38.71209852382282 C 0.0 **** -0.24
25902 H 20.42193679740302 30.383454445331523 38.67919435814906 H 0.0 **** 0.06
25903 H 19.074169881069963 29.83702619822901 39.70476430864862 H 0.0 **** 0.06
25904 H 19.777867500218576 28.734533297764955 38.496695004988396 H 0.0 **** 0.06
25905 H 18.810344607591844 30.132004963241513 37.969224029573155 H 0.0 **** 0.06
25906 C 49.558774359811096 14.007211962700861 90.86606622669518 C 0.0 **** -0.24
25907 H 49.57801737088854 14.480931856770273 91.84730008008762 H 0.0 **** 0.06
25908 H 49.604529588573826 12.924110092794095 90.98424652914196 H 0.0 **** 0.06
25909 H 50.41593213182726 14.345311906714425 90.28275689816326 H 0.0 **** 0.06
25910 H 48.63864475787725 14.277820270787267 90.34929806648603 H 0.0 **** 0.06
25911 C 84.56855400013171 42.593873812931974 80.82189350862156 C 0.0 **** -0.24
25912 H 83.79261648338888 43.01708918816166 80.18446083114729 H 0.0 **** 0.06
25913 H 84.10910393338037 42.14521647789519 81.70370701396041 H 0.0 **** 0.06
25914 H 85.25551789397912 43.381336950604975 81.13139978080633 H 0.0 **** 0.06
25915 H 85.11524157679816 41.82993231275077 80.26914600330099 H 0.0 **** 0.06
25916 C 94.91117949150649 43.325185234903714 14.898808610548492 C 0.0 **** -0.24
25917 H 94.83993990432077 42.46015425134478 14.240332345012312 H 0.0 **** 0.06
25918 H 93.96284397076104 43.86450833478662 14.894429945226168 H 0.0 **** 0.06
25919 H 95.70576616596401 43.983712696077475 14.549217008660676 H 0.0 **** 0.06
25920 H 95.13431718015642 42.99244806895696 15.912507422545094 H 0.0 **** 0.06
25921 C 99.84293307018356 64.06048387348324 32.571534634225166 C 0.0 **** -0.24
25922 H 99.60568653764344 63.723735780086145 31.561774961645725 H 0.0 **** 0.06
25923 H 100.64555448623331 63.44631838654999 32.98013267817796 H 0.0 **** 0.06
25924 H 98.95782586589982 63.97051737930667 33.201306814938356 H 0.0 **** 0.06
25925 H 100.16255937746497 65.10283187549771 32.539951792949445 H 0.0 **** 0.06
25926 C 49.214872489332556 104.50326109956296 12.046338259464846 C 0.0 **** -0.24
25927 H 48.37783146377615 105.00504897129082 11.562639076922451 H 0.0 **** 0.06
25928 H 49.75628596194487 105.21690201418984 12.667728515511044 H 0.0 **** 0.06
25929 H 49.88579080327166 104.10088674348299 11.28693898595536 H 0.0 **** 0.06
25930 H 48.840744615722855 103.69080354493963 12.668586397374455 H 0.0 **** 0.06
25931 C 55.63343376914021 96.37237149951835 37.075080922375236 C 0.0 **** -0.24
25932 H 54.77729501390944 96.6899460326402 36.4807421912119 H 0.0 **** 0.06
25933 H 55.407261007867746 95.42112121385799 37.55766309031128 H 0.0 **** 0.06
25934 H 55.84830005381377 97.12436496816343 37.83409345025299 H 0.0 **** 0.06
25935 H 56.501387071623405 96.25287087292361 36.42599661465633 H 0.0 **** 0.06
25936 C 24.20550536171345 31.9059031495853 72.73409607647821 C 0.0 **** -0.24
25937 H 23.685151431693896 32.42596671727239 71.93036206535962 H 0.0 **** 0.06
25938 H 24.243321675087998 32.544363848739096 73.6165985310414 H 0.0 **** 0.06
25939 H 25.220235008802604 31.666444860168042 72.41480115617401 H 0.0 **** 0.06
25940 H 23.674122669717065 30.984792660979565 72.9750289972931 H 0.0 **** 0.06
25941 C 90.85987579997231 66.96249804919125 24.434022025493448 C 0.0 **** -0.24
25942 H 91.57100004574067 66.1672466270789 24.209119280467377 H 0.0 **** 0.06
25943 H 90.87683186084297 67.70098439393564 23.63260631996411 H 0.0 **** 0.06
25944 H 91.13341267409135 67.43909147588829 25.374690910657563 H 0.0 **** 0.06
25945 H 89.85837329364358 66.54031830219344 24.518103732154742 H 0.0 **** 0.06
25946 C 17.686010926387425 68.63156953097331 26.000236043400008 C 0.0 **** -0.24
25947 H 16.878384886700402 68.64968696507412 26.732045903919527 H 0.0 **** 0.06
25948 H 18.292349660688416 69.53016708276215 26.107424830760976 H 0.0 **** 0.06
25949 H 17.264759800546074 68.59447787347642 24.99579718973044 H 0.0 **** 0.06
25950 H 18.30699884558507 67.75072474722629 26.166727063468784 H 0.0 **** 0.06
25951 C 87.13130083586452 10.346717893091938 6.203511215743333 C 0.0 **** -0.24
25952 H 86.47171579032289 9.758180041132821 5.566768383540534 H 0.0 **** 0.06
25953 H 86.86702951998814 11.401433764870244 6.125102996759324 H 0.0 **** 0.06
25954 H 88.1644300322082 10.20529223007974 5.885938259278362 H 0.0 **** 0.06
25955 H 87.02179373311503 10.02074583937953 7.238346564132883 H 0.0 **** 0.06
25956 C 68.80552914906536 89.50029955175708 106.56622951342251 C 0.0 **** -0.24
25957 H 69.22799715447377 89.67893461965531 105.57797247430096 H 0.0 **** 0.06
25958 H 67.9009512261647 90.09653420127243 106.68856015976385 H 0.0 **** 0.06
25959 H 69.5324637009337 89.78048719381293 107.32838025950434 H 0.0 **** 0.06
25960 H 68.56073562302322 88.44248934873521 106.67065422627083 H 0.0 **** 0.06
25961 C 38.38234745991493 91.46179578532178 40.779057711117275 C 0.0 **** -0.24
25962 H 37.55854343262286 92.00949516950396 41.2367792888125 H 0.0 **** 0.06
25963 H 38.19577603254087 90.39065285511023 40.858560391220465 H 0.0 **** 0.06
25964 H 39.3117704764803 91.70843410633432 41.292181594004944 H 0.0 **** 0.06
25965 H 38.46286327687771 91.7397353501841 39.727986565831145 H 0.0 **** 0.06
25966 C 103.7404046512771 73.64302311707183 96.40902547466757 C 0.0 **** -0.24
25967 H 104.39485798332662 72.7997247630031 96.63025718390806 H 0.0 **** 0.06
25968 H 104.06883458175236 74.12547420653894 95.48820927139843 H 0.0 **** 0.06
25969 H 103.7821175520126 74.35950107202808 97.22911881215371 H 0.0 **** 0.06
25970 H 102.71771348864135 73.28662799642942 96.2898533887127 H 0.0 **** 0.06
25971 C 39.305655252521234 14.969550873692725 51.094399887062366 C 0.0 **** -0.24
25972 H 39.42440706320536 13.926744509280667 51.38877147294272 H 0.0 **** 0.06
25973 H 39.50000644023172 15.612622557531438 51.95322885559875 H 0.0 **** 0.06
25974 H 38.28863099562891 15.13364407835735 50.73862495863432 H 0.0 **** 0.06
25975 H 40.01140795466503 15.203587314067164 50.29723879230124 H 0.0 **** 0.06
25976 C 3.693409270317801 86.56714339904823 47.79156888295131 C 0.0 **** -0.24
25977 H 3.8947229010908586 87.5409889836942 48.23660402044882 H 0.0 **** 0.06
25978 H 3.418677472016199 86.69540313357624 46.74451032719209 H 0.0 **** 0.06
25979 H 2.8754944135523175 86.08514257979664 48.326769043002635 H 0.0 **** 0.06
25980 H 4.587088922701014 85.94634969807748 47.85852867024486 H 0.0 **** 0.06
25981 C 26.799320644496788 2.7613331432160066 106.99446091313041 C 0.0 **** -0.24
25982 H 27.1657227201473 2.121314031682047 107.79759902578458 H 0.0 **** 0.06
25983 H 25.800299743579203 3.1189217706113794 107.24108466736455 H 0.0 **** 0.06
25984 H 26.76369396265092 2.19277212810087 106.06547985036889 H 0.0 **** 0.06
25985 H 27.4708460234297 3.611922477464134 106.8739651654996 H 0.0 **** 0.06
25986 C 58.951727013352695 45.00794506270523 22.23017566966729 C 0.0 **** -0.24
25987 H 59.2295974609131 45.92951487476921 21.720171990813697 H 0.0 **** 0.06
25988 H 58.17825766862398 45.22055565499028 22.968278405199072 H 0.0 **** 0.06
25989 H 59.82738996068663 44.59214609559007 22.73051900147894 H 0.0 **** 0.06
25990 H 58.57425141104127 44.29023821430309 21.502652666751317 H 0.0 **** 0.06
25991 C 37.07941825046191 65.77052798108281 36.623240959992415 C 0.0 **** -0.24
25992 H 37.23365234226034 65.58097174477768 37.6855733083637 H 0.0 **** 0.06
25993 H 36.536744421284965 66.70749544276032 36.496884970609074 H 0.0 **** 0.06
25994 H 36.501458892081075 64.9538153004986 36.18998221194107 H 0.0 **** 0.06
25995 H 38.04470930648688 65.83845036395604 36.12314459116686 H 0.0 **** 0.06
25996 C 106.01781022250965 20.31374937402513 52.96436010746609 C 0.0 **** -0.24
25997 H 106.06914127682803 19.228955729008263 53.05378922769984 H 0.0 **** 0.06
25998 H 106.54730672042757 20.77334266153824 53.79980745713314 H 0.0 **** 0.06
25999 H 104.97454997166443 20.629907844681703 52.97813051427943 H 0.0 **** 0.06
26000 H 106.47965421335347 20.62335732506221 52.02686782810804 H 0.0 **** 0.06
26001 C 20.529801078272442 55.04457776927052 107.75176329909897 C 0.0 **** -0.24
26002 H 20.605731716481245 55.936687367721845 107.12981575189603 H 0.0 **** 0.06
26003 H 20.133140069764806 55.31691746942681 108.73057581345215 H 0.0 **** 0.06
26004 H 21.51736404070749 54.59920753368266 107.87069800422957 H 0.0 **** 0.06
26005 H 19.86256963132965 54.32620838042095 107.27538282763324 H 0.0 **** 0.06
26006 C 52.884607390350936 71.91077769494252 40.73950580340457 C 0.0 **** -0.24
26007 H 53.164492303942495 70.98919804562857 41.25099497766132 H 0.0 **** 0.06
26008 H 52.25457394571788 71.67371767032338 39.882186063240084 H 0.0 **** 0.06
26009 H 53.783154970296664 72.42489478645119 40.39932267522184 H 0.0 **** 0.06
26010 H 52.336118395876326 72.55520923037241 41.426511299146966 H 0.0 **** 0.06
26011 C 100.69140883846522 78.12897485653924 30.55984132362741 C 0.0 **** -0.24
26012 H 99.83879408216544 77.93610616241035 31.210594312233212 H 0.0 **** 0.06
26013 H 101.61394691356172 77.90705421569561 31.0967104730816 H 0.0 **** 0.06
26014 H 100.68790664275434 79.17533089826979 30.257370808003714 H 0.0 **** 0.06
26015 H 100.62381245596517 77.49448079906216 29.67643613661332 H 0.0 **** 0.06
26016 C 5.678677066922635 105.85699060688721 93.7249680349227 C 0.0 **** -0.24
26017 H 5.624562934678073 104.77937184048686 93.57301690656585 H 0.0 **** 0.06
26018 H 6.143670126891662 106.06551487452735 94.68811692178949 H 0.0 **** 0.06
26019 H 4.67241095092708 106.27728666679747 93.70766113281933 H 0.0 **** 0.06
26020 H 6.273239031832983 106.30548467961015 92.92879098750664 H 0.0 **** 0.06
26021 C 91.48236562213806 97.80080260795617 99.4168827167471 C 0.0 **** -0.24
26022 H 91.17638062087413 97.68189629140618 100.45713667070659 H 0.0 **** 0.06
26023 H 90.6370921918644 98.15845646949646 98.82911127823357 H 0.0 **** 0.06
26024 H 91.81833815749212 96.84111131444214 99.02497867643568 H 0.0 **** 0.06
26025 H 92.29747224926699 98.52296409868542 99.35904019099465 H 0.0 **** 0.06
26026 C 8.504708424614932 28.36415865988606 61.61753012053531 C 0.0 **** -0.24
26027 H 7.452166882766761 28.34074597635953 61.33388788454914 H 0.0 **** 0.06
26028 H 8.661676756560297 29.141743837662347 62.366804500140134 H 0.0 **** 0.06
26029 H 9.112643530477555 28.5786248560171 60.738153677344414 H 0.0 **** 0.06
26030 H 8.79197830875836 27.397909625145047 62.030881658480425 H 0.0 **** 0.06
26031 C 55.24723899538765 97.15153644109341 77.2472751934751 C 0.0 **** -0.24
26032 H 55.1695382372497 98.21224196917683 77.01068682383817 H 0.0 **** 0.06
26033 H 55.72009863000471 97.03005354494417 78.22221234098647 H 0.0 **** 0.06
26034 H 55.84860838790169 96.65347611351643 76.4867461038344 H 0.0 **** 0.06
26035 H 54.25071072639446 96.71037413673622 77.26945550524125 H 0.0 **** 0.06
26036 C 25.13251464172464 71.93610937936754 52.27689735359638 C 0.0 **** -0.24
26037 H 25.925037112907006 71.2294820524566 52.52391901655534 H 0.0 **** 0.06
26038 H 25.572448343229468 72.84948811768018 51.87705447313465 H 0.0 **** 0.06
26039 H 24.562763587255347 72.1703215303418 53.17577949480523 H 0.0 **** 0.06
26040 H 24.471581750469994 71.49392745275338 51.53200907725375 H 0.0 **** 0.06
26041 C 50.45570303777509 8.804001328701617 88.63630273290927 C 0.0 **** -0.24
26042 H 50.075550550385756 9.066347595069772 87.64918610532762 H 0.0 **** 0.06
26043 H 51.54306435038403 8.73448230788236 88.5987495936628 H 0.0 **** 0.06
26044 H 50.04092672855106 7.844177951384211 88.94238013030298 H 0.0 **** 0.06
26045 H 50.1649963765835 9.57164614752925 89.3532823618318 H 0.0 **** 0.06
26046 C 107.95973791091653 71.42210317576797 65.42910090795988 C 0.0 **** -0.24
26047 H 107.0331651235332 71.78025374217339 65.87889288709198 H 0.0 **** 0.06
26048 H 107.72650269529989 70.7275491449115 64.62101313424 H 0.0 **** 0.06
26049 H 108.5566787828297 70.91231803424057 66.1856420240884 H 0.0 **** 0.06
26050 H 108.5208879109346 72.2674045606914 65.03198010902003 H 0.0 **** 0.06
26051 C 41.545551490614656 36.218486782772686 25.73399371731631 C 0.0 **** -0.24
26052 H 41.05071106568967 35.24838160427407 25.754839411933858 H 0.0 **** 0.06
26053 H 41.06547867707541 36.8557980550699 24.99089600890227 H 0.0 **** 0.06
26054 H 42.59585409295357 36.08565334447604 25.47388514425876 H 0.0 **** 0.06
26055 H 41.471390082503284 36.685212241455474 26.715819121291247 H 0.0 **** 0.06
26056 C 89.34538801522702 47.22924705481614 94.68802253285867 C 0.0 **** -0.24
26057 H 88.68096910627061 47.07392555811839 95.53769096717099 H 0.0 **** 0.06
26058 H 90.29354600692315 46.72219582686705 94.87111071758454 H 0.0 **** 0.06
26059 H 89.5236812526581 48.2968601113198 94.55595186457052 H 0.0 **** 0.06
26060 H 88.88468860671381 46.823688760652544 93.78768636352444 H 0.0 **** 0.06
26061 C 50.87885889549759 101.34060072821035 12.746547834614901 C 0.0 **** -0.24
26062 H 51.67206957112356 100.74973098343656 13.205615965063302 H 0.0 **** 0.06
26063 H 50.34499548434887 100.7278311608884 12.01921632970393 H 0.0 **** 0.06
26064 H 51.31333182308584 102.20508543234104 12.244777775923971 H 0.0 **** 0.06
26065 H 50.18559247602634 101.67765020265665 13.51709312729075 H 0.0 **** 0.06
26066 C 104.38953707226545 25.241508539340373 83.15271816520323 C 0.0 **** -0.24
26067 H 104.12586732596634 25.946301349972543 83.94128844774703 H 0.0 **** 0.06
26068 H 105.05682913653982 25.72671827613277 82.439378402273 H 0.0 **** 0.06
26069 H 103.48503416234439 24.9143580661829 82.63937051047844 H 0.0 **** 0.06
26070 H 104.89186268297283 24.378389876663903 83.58991823857673 H 0.0 **** 0.06
26071 C 102.56399129208233 76.19169542041047 27.820324190670483 C 0.0 **** -0.24
26072 H 103.34150882126676 75.79609304839245 27.167718698941194 H 0.0 **** 0.06
26073 H 102.23594394047473 75.41217511696087 28.508241179280766 H 0.0 **** 0.06
26074 H 101.71857958676355 76.5234702147406 27.217961141733674 H 0.0 **** 0.06
26075 H 102.95904364430362 77.03468937940052 28.38708564570019 H 0.0 **** 0.06
26076 C 30.4515580550701 39.2896774240681 10.042750700058226 C 0.0 **** -0.24
26077 H 30.317142318628804 38.49401621776528 9.309836382635252 H 0.0 **** 0.06
26078 H 29.62167069468569 39.276271814608876 10.74928094657805 H 0.0 **** 0.06
26079 H 30.48059962799845 40.25184272440424 9.532896626879591 H 0.0 **** 0.06
26080 H 31.38786611226672 39.13462184543934 10.579262344234124 H 0.0 **** 0.06
26081 C 22.937103603231435 39.135429517893385 88.594481546709 C 0.0 **** -0.24
26082 H 22.814360120438835 38.08491335019903 88.33127907380782 H 0.0 **** 0.06
26083 H 23.821705826051158 39.53357657604607 88.09453484518642 H 0.0 **** 0.06
26084 H 23.05726163784024 39.22765770433489 89.67322927747574 H 0.0 **** 0.06
26085 H 22.057295985983217 39.69480262711147 88.27632746912553 H 0.0 **** 0.06
26086 C 30.948314763155793 12.510511517257072 36.85464603567293 C 0.0 **** -0.24
26087 H 31.210790824322494 13.563986733100336 36.9540343790405 H 0.0 **** 0.06
26088 H 31.854085393843206 11.921451491715573 36.71418773466484 H 0.0 **** 0.06
26089 H 30.291997473938984 12.379952955305185 35.994453736958064 H 0.0 **** 0.06
26090 H 30.435313339491373 12.177842463254478 37.7577632151408 H 0.0 **** 0.06
26091 C 14.854798918142365 21.0508094555027 30.92751735137619 C 0.0 **** -0.24
26092 H 14.309815120291887 21.979135478478213 30.754690226049185 H 0.0 **** 0.06
26093 H 14.859861352679559 20.45777690266442 30.01291771218711 H 0.0 **** 0.06
26094 H 14.369147448134015 20.487568123549977 31.723992430508602 H 0.0 **** 0.06
26095 H 15.879928973710946 21.28103901389659 31.21769566088051 H 0.0 **** 0.06
26096 C 73.85715889211502 56.59213689042076 58.871032643367585 C 0.0 **** -0.24
26097 H 74.55067060571798 55.82651856748231 58.52338510240145 H 0.0 **** 0.06
26098 H 73.02179032340979 56.66949997213135 58.17537250866803 H 0.0 **** 0.06
26099 H 74.37373933093932 57.55060763483192 58.92787670028952 H 0.0 **** 0.06
26100 H 73.48377307229532 56.321633875483826 59.85926487063759 H 0.0 **** 0.06
26101 C 31.75545911270285 94.9954444497062 74.46596298637019 C 0.0 **** -0.24
26102 H 32.38228162196674 94.35856944535914 75.09100423086181 H 0.0 **** 0.06
26103 H 32.04269673066142 96.03741371657748 74.60605337092511 H 0.0 **** 0.06
26104 H 30.710268262581053 94.86449737151132 74.7478809334599 H 0.0 **** 0.06
26105 H 31.88713971099554 94.71864726979939 73.41973533645466 H 0.0 **** 0.06
26106 C 83.6284043578375 88.80056895525439 105.2394506729106 C 0.0 **** -0.24
26107 H 83.92554221939766 88.47126480285516 106.23495887550956 H 0.0 **** 0.06
26108 H 83.11404463323889 87.98774600876425 104.72611774381261 H 0.0 **** 0.06
26109 H 84.5145614297201 89.08591493088937 104.67180281458383 H 0.0 **** 0.06
26110 H 82.96112546717278 89.65779500956631 105.32516573922976 H 0.0 **** 0.06
26111 C 74.47161410737385 70.294175900747 43.175943449615914 C 0.0 **** -0.24
26112 H 74.75812979275659 70.16148996280619 44.219808861675276 H 0.0 **** 0.06
26113 H 73.70400299651993 69.56505013372632 42.91487913655237 H 0.0 **** 0.06
26114 H 75.34365924438711 70.14725668519682 42.539050418023294 H 0.0 **** 0.06
26115 H 74.0809150445287 71.30169980693405 43.0312521165649 H 0.0 **** 0.06
26116 C 90.01271787240654 85.60115199199265 104.546925215204 C 0.0 **** -0.24
26117 H 90.874299468 85.85074272880382 105.16609509847234 H 0.0 **** 0.06
26118 H 90.13182596943619 84.59294625791534 104.1486235060994 H 0.0 **** 0.06
26119 H 89.94001947665441 86.3111294571188 103.72371162182941 H 0.0 **** 0.06
26120 H 89.10556490924046 85.64967317763063 105.14980327910746 H 0.0 **** 0.06
26121 C 65.59562174089535 1.6950104988762709 110.60769889857316 C 0.0 **** -0.24
26122 H 64.61055174760867 2.0395027855689456 110.92286221774718 H 0.0 **** 0.06
26123 H 65.56749493085266 0.6184653017310735 110.44074972002116 H 0.0 **** 0.06
26124 H 66.32579893182412 1.9234219128663668 111.38407975057163 H 0.0 **** 0.06
26125 H 65.87837606400069 2.1992770882748855 109.68383802494043 H 0.0 **** 0.06
26126 C 17.39219974675285 62.88232831070894 86.22732554298307 C 0.0 **** -0.24
26127 H 16.976582635019554 61.87967403152075 86.32535881581813 H 0.0 **** 0.06
26128 H 17.65560573051539 63.264428519851265 87.2139756774514 H 0.0 **** 0.06
26129 H 16.652879045390932 63.53852956515922 85.7684687810293 H 0.0 **** 0.06
26130 H 18.28494916687231 62.8459777408375 85.60164996753699 H 0.0 **** 0.06
26131 C 60.28703632082099 45.49422189918664 4.098478025601068 C 0.0 **** -0.24
26132 H 59.924616594672784 45.58935101060473 5.121692611599357 H 0.0 **** 0.06
26133 H 60.58124352961485 44.46088895286232 3.911676181949929 H 0.0 **** 0.06
26134 H 61.14825102410873 46.147962070025415 3.956788901263721 H 0.0 **** 0.06
26135 H 59.49585696258168 45.778689753037725 3.405049603727221 H 0.0 **** 0.06
26136 C 63.859408358811294 57.701277437817055 3.727344247169526 C 0.0 **** -0.24
26137 H 62.89892944168315 57.20206825074624 3.601558153386577 H 0.0 **** 0.06
26138 H 63.8810544431731 58.60504701052116 3.117047745390977 H 0.0 **** 0.06
26139 H 64.66032977353456 57.03205017781434 3.413686034225833 H 0.0 **** 0.06
26140 H 63.99660215608279 57.96621392826958 4.77553184016223 H 0.0 **** 0.06
26141 C 11.018416730107276 74.949792372603 55.955564832113055 C 0.0 **** -0.24
26142 H 12.046320746684614 74.61217387431324 56.09076413599428 H 0.0 **** 0.06
26143 H 10.335109765088475 74.13893106054586 56.20765459483579 H 0.0 **** 0.06
26144 H 10.867208676255274 75.24291277444436 54.91624277901229 H 0.0 **** 0.06
26145 H 10.82782182354515 75.80268233165651 56.605574015488344 H 0.0 **** 0.06
26146 C 72.30835078921197 49.26756327299852 76.31777582829409 C 0.0 **** -0.24
26147 H 71.59290883272449 49.837414832454904 75.72606249483556 H 0.0 **** 0.06
26148 H 72.71020995811703 48.45160383965852 75.71584458747674 H 0.0 **** 0.06
26149 H 71.80795005683778 48.858651759827566 77.1964135745813 H 0.0 **** 0.06
26150 H 73.12084020309301 49.921469239244296 76.6340188571262 H 0.0 **** 0.06
26151 C 85.19278130331818 107.9402673402985 71.11253475197367 C 0.0 **** -0.24
26152 H 85.83939679099569 108.74014235781736 71.47197327135336 H 0.0 **** 0.06
26153 H 85.49188184167423 106.99767383732042 71.57300318956015 H 0.0 **** 0.06
26154 H 85.28270776556019 107.85965536508719 70.02849888822897 H 0.0 **** 0.06
26155 H 84.15932576245865 108.1616505315455 71.37601108286509 H 0.0 **** 0.06
26156 C 35.00951838967285 90.40413884374973 62.68510361264504 C 0.0 **** -0.24
26157 H 34.12544509163513 90.12746249313477 62.10981726470504 H 0.0 **** 0.06
26158 H 35.50675429736785 89.50199790424102 63.04191017752589 H 0.0 **** 0.06
26159 H 34.71113987170881 91.01585040463894 63.53686941931369 H 0.0 **** 0.06
26160 H 35.69235525538866 90.97086270753476 62.05225876563719 H 0.0 **** 0.06
26161 C 70.58034651461978 68.2795411664942 39.876337089121705 C 0.0 **** -0.24
26162 H 70.44692812298804 69.2662195067318 40.319321389834954 H 0.0 **** 0.06
26163 H 69.69514191727717 67.67310564594925 40.06922963689652 H 0.0 **** 0.06
26164 H 71.4536612755566 67.79883346592828 40.31765578095141 H 0.0 **** 0.06
26165 H 70.7257333256409 68.38097972357224 38.801796013266795 H 0.0 **** 0.06
26166 C 106.81684356035716 106.57220449270432 7.333850237819718 C 0.0 **** -0.24
26167 H 106.4661595904617 107.2795734534858 8.086519970713596 H 0.0 **** 0.06
26168 H 107.23252217046452 105.6935678198144 7.82786406257776 H 0.0 **** 0.06
26169 H 107.5862280184657 107.04401882578807 6.722931661883422 H 0.0 **** 0.06
26170 H 105.98221779818554 106.27244370932027 6.700164166302386 H 0.0 **** 0.06
26171 C 91.31718827998563 11.435096291771885 29.17304701739505 C 0.0 **** -0.24
26172 H 92.38482619827965 11.64078149049277 29.086631262086854 H 0.0 **** 0.06
26173 H 90.90431520654934 12.005283783703646 30.005997703526475 H 0.0 **** 0.06
26174 H 91.16659965887038 10.370333994308112 29.352295644036474 H 0.0 **** 0.06
26175 H 90.81639883190587 11.723694062586048 28.249597005960993 H 0.0 **** 0.06
26176 C 9.277995005861726 73.96439873149964 0.023041551477135158 C 0.0 **** -0.24
26177 H 9.639178108144336 73.40629334139403 0.8857818247303584 H 0.0 **** 0.06
26178 H 10.125704080207413 74.28983404421015 -0.5803670500124838 H 0.0 **** 0.06
26179 H 8.717225110460731 74.83550668012249 0.36296630073485403 H 0.0 **** 0.06
26180 H 8.628477705281227 73.32573449939223 -0.5761621219214845 H 0.0 **** 0.06
26181 C 30.77393161652168 26.087227563871096 39.23594692288842 C 0.0 **** -0.24
26182 H 29.856608798373543 26.617657805129753 38.980024376261014 H 0.0 **** 0.06
26183 H 31.16024961791186 26.464278124667473 40.18352914593726 H 0.0 **** 0.06
26184 H 31.515696282231204 26.24562133386131 38.45249151474036 H 0.0 **** 0.06
26185 H 30.564444546332936 25.021134240994257 39.327166214810006 H 0.0 **** 0.06
26186 C 65.0955337600625 107.64674822933318 102.43772931809022 C 0.0 **** -0.24
26187 H 64.8581479259413 106.77548457980319 101.82659726002669 H 0.0 **** 0.06
26188 H 64.64054207358532 107.53382207077678 103.42274052410627 H 0.0 **** 0.06
26189 H 64.70587774291289 108.54420608967627 101.95760611222136 H 0.0 **** 0.06
26190 H 66.17690397845172 107.73192424123144 102.54434650052599 H 0.0 **** 0.06
26191 C 36.260588915559694 47.026406147369784 106.97459994211916 C 0.0 **** -0.24
26192 H 35.64812812636722 46.48413238728398 107.6958826528053 H 0.0 **** 0.06
26193 H 36.54552502460787 46.35518323095613 106.16385646305476 H 0.0 **** 0.06
26194 H 37.15692302769718 47.400942865727245 107.46815956074904 H 0.0 **** 0.06
26195 H 35.69063193951253 47.86339692762925 106.57139874590789 H 0.0 **** 0.06
26196 C 77.38905536486845 94.11768646996684 107.57544223886259 C 0.0 **** -0.24
26197 H 76.67425595023451 93.64610681386239 106.9013101002252 H 0.0 **** 0.06
26198 H 77.08300692190096 93.94572614372748 108.60771486019499 H 0.0 **** 0.06
26199 H 77.42118214445361 95.18891701194931 107.37822739288234 H 0.0 **** 0.06
26200 H 78.37809320581846 93.68846929071492 107.41291368443703 H 0.0 **** 0.06
26201 C 78.06707392334249 20.2280154640506 26.707479434445986 C 0.0 **** -0.24
26202 H 78.94734482232911 19.656466428795085 26.41130949207914 H 0.0 **** 0.06
26203 H 77.78210401284355 19.95531291776433 27.723494292106324 H 0.0 **** 0.06
26204 H 77.24521919553115 20.00607442491767 26.02708712857563 H 0.0 **** 0.06
26205 H 78.29584953708081 21.292660630443834 26.66639306797083 H 0.0 **** 0.06
26206 C 90.14615818822713 69.37299128901765 88.80555718707308 C 0.0 **** -0.24
26207 H 89.87643868716901 69.96970892489554 87.93435504574965 H 0.0 **** 0.06
26208 H 89.886747960494 68.32963015064729 88.62504785369715 H 0.0 **** 0.06
26209 H 89.60355434824902 69.73802746559443 89.67702683399533 H 0.0 **** 0.06
26210 H 91.21904937945158 69.45545415151031 88.98408781094534 H 0.0 **** 0.06
26211 C 53.2047988848725 100.25647785798546 103.34015073467268 C 0.0 **** -0.24
26212 H 53.86155046563732 101.07685869992946 103.62873580583467 H 0.0 **** 0.06
26213 H 52.227058517783234 100.39327965176653 103.80226412169482 H 0.0 **** 0.06
26214 H 53.63624658101659 99.31207879659829 103.67423621462814 H 0.0 **** 0.06
26215 H 53.09666455149821 100.24293867517531 102.25552711450763 H 0.0 **** 0.06
26216 C 22.408343517682965 45.10470602701099 5.481343620315172 C 0.0 **** -0.24
26217 H 22.466902495691187 45.66450523074195 6.4153717168942705 H 0.0 **** 0.06
26218 H 23.403349109776457 45.02014884658212 5.045974101567126 H 0.0 **** 0.06
26219 H 21.749847856775006 45.62653474245957 4.78650333696541 H 0.0 **** 0.06
26220 H 22.012071450579867 44.109238724455906 5.68016766503689 H 0.0 **** 0.06
26221 C 38.46074431952883 80.54923271612836 67.32148778428211 C 0.0 **** -0.24
26222 H 38.07416973409377 79.83172540362989 68.04512586263914 H 0.0 **** 0.06
26223 H 39.22156411158184 80.06987983621104 66.70558942822814 H 0.0 **** 0.06
26224 H 38.90009944338405 81.39625503037684 67.84872968725705 H 0.0 **** 0.06
26225 H 37.646157960002256 80.89896705156457 66.68663683373794 H 0.0 **** 0.06
26226 C 27.587022691036765 87.48302490134279 93.239893586045 C 0.0 **** -0.24
26227 H 27.920889713709585 87.81470793217903 94.223106642481 H 0.0 **** 0.06
26228 H 27.219677118914035 86.45954183193993 93.30712685661395 H 0.0 **** 0.06
26229 H 28.422176028203296 87.5243464439825 92.54063957823328 H 0.0 **** 0.06
26230 H 26.78717980541309 88.13512931739109 92.88872990506597 H 0.0 **** 0.06
26231 C 18.839690033955094 87.84396324247953 62.841841281508266 C 0.0 **** -0.24
26232 H 19.791119857195895 87.84688460845194 63.3725515861251 H 0.0 **** 0.06
26233 H 18.64927054221016 88.83554704051397 62.43140284136712 H 0.0 **** 0.06
26234 H 18.03964111943469 87.57676373382543 63.532917208495974 H 0.0 **** 0.06
26235 H 18.877807217414954 87.11564923072993 62.0322639395942 H 0.0 **** 0.06
26236 C 100.59894386612984 9.351806440303761 27.378451906365683 C 0.0 **** -0.24
26237 H 101.0197856695869 8.360745465322111 27.550574229169996 H 0.0 **** 0.06
26238 H 101.3852721256066 10.026488326287904 27.040454960935847 H 0.0 **** 0.06
26239 H 100.16935242113016 9.729505565205358 28.305391607079997 H 0.0 **** 0.06
26240 H 99.82189877080606 9.288374944906622 26.616265492422514 H 0.0 **** 0.06
26241 C 87.78535937615462 9.553943663125438 31.671421255213573 C 0.0 **** -0.24
26242 H 88.01696592151558 9.432786098615509 32.730486917443145 H 0.0 **** 0.06
26243 H 87.38320520328818 8.619538190727724 31.27909843000829 H 0.0 **** 0.06
26244 H 88.6931084791243 9.815300728199873 31.1288664552673 H 0.0 **** 0.06
26245 H 87.04790695983962 10.347373131549546 31.54994144142134 H 0.0 **** 0.06
26246 C 67.08802517598357 26.74349462196163 90.6936441281645 C 0.0 **** -0.24
26247 H 67.15648707030965 27.46971531095855 89.88377117182625 H 0.0 **** 0.06
26248 H 66.12894027413097 26.85574903511403 91.20151216593763 H 0.0 **** 0.06
26249 H 67.89751747189013 26.913478350577634 91.40315414234513 H 0.0 **** 0.06
26250 H 67.16687788599455 25.735903662142988 90.28589859470941 H 0.0 **** 0.06
26251 C 29.341173211192654 26.18314412884419 88.39004649626926 C 0.0 **** -0.24
26252 H 30.03089895058656 25.344089129113286 88.30244621803865 H 0.0 **** 0.06
26253 H 28.33509861186576 25.808681921047324 88.58040855818274 H 0.0 **** 0.06
26254 H 29.346821995966593 26.756084628551406 87.46269110820626 H 0.0 **** 0.06
26255 H 29.653589673769716 26.823630251785445 89.21485448218704 H 0.0 **** 0.06
26256 C 46.33671473736649 32.302886614199 82.15420787909818 C 0.0 **** -0.24
26257 H 45.49145399328802 32.295215875351374 81.46638730518612 H 0.0 **** 0.06
26258 H 46.13366046151418 32.99362809123588 82.97252193813864 H 0.0 **** 0.06
26259 H 47.23414028661472 32.62148195794194 81.62251605467901 H 0.0 **** 0.06
26260 H 46.48850507365347 31.300131331179557 82.55295622157797 H 0.0 **** 0.06
26261 C 97.71587979756562 33.72630130421191 106.27926991618594 C 0.0 **** -0.24
26262 H 97.75728813758448 33.10950039420615 105.38158026287536 H 0.0 **** 0.06
26263 H 98.69895496904292 33.748879185252115 106.75019476069761 H 0.0 **** 0.06
26264 H 96.98912976760687 33.30692489888587 106.97485567315265 H 0.0 **** 0.06
26265 H 97.41845878521912 34.73944662990204 106.00961458281951 H 0.0 **** 0.06
26266 C 26.362213224278435 67.84925495087252 38.996810537511905 C 0.0 **** -0.24
26267 H 26.655311030685084 68.7369131238966 39.55698671721681 H 0.0 **** 0.06
26268 H 25.321597927709888 67.94344599214945 38.68460284935129 H 0.0 **** 0.06
26269 H 26.474198549299388 66.96812437049073 39.62820335759102 H 0.0 **** 0.06
26270 H 26.99786267327454 67.74956758858546 38.1160625485105 H 0.0 **** 0.06
26271 C 20.327466286464357 21.817767594621735 40.411592904454835 C 0.0 **** -0.24
26272 H 20.98188102797164 22.344669474425476 41.106149235147626 H 0.0 **** 0.06
26273 H 19.427273687754194 21.494460517216947 40.93465558628631 H 0.0 **** 0.06
26274 H 20.847541618812556 20.94805330022804 40.01112894369203 H 0.0 **** 0.06
26275 H 20.052827632270024 22.484785501891626 39.594161271552935 H 0.0 **** 0.06
26276 C 29.16624126212261 17.17752933770123 74.68620810496435 C 0.0 **** -0.24
26277 H 28.09262794038733 17.255175296437002 74.85714160583768 H 0.0 **** 0.06
26278 H 29.550817577782425 16.291410223491084 75.1910473842625 H 0.0 **** 0.06
26279 H 29.661692160652564 18.064660292075317 75.08023068024102 H 0.0 **** 0.06
26280 H 29.358985663806124 17.097796825539902 73.6160431237576 H 0.0 **** 0.06
26281 C 87.38287127731279 87.09979869424865 72.69196822238402 C 0.0 **** -0.24
26282 H 87.12130221264937 87.58418559553306 71.75161475352185 H 0.0 **** 0.06
26283 H 86.92886062601896 87.64474326640152 73.51995161650441 H 0.0 **** 0.06
26284 H 88.46573141626318 87.09565834986375 72.80989374431763 H 0.0 **** 0.06
26285 H 87.01292711695912 86.07390978138392 72.68760359571861 H 0.0 **** 0.06
26286 C 65.29568515618439 103.32771110787654 50.08495779617335 C 0.0 **** -0.24
26287 H 64.46238959900904 103.9505174413638 50.41191279422492 H 0.0 **** 0.06
26288 H 66.23531195926483 103.83214685827258 50.31074483757378 H 0.0 **** 0.06
26289 H 65.2225931426629 103.15916045508924 49.010477468436726 H 0.0 **** 0.06
26290 H 65.26067258396529 102.37179534133428 50.606306847815084 H 0.0 **** 0.06
26291 C 99.43208884204775 106.95821100163829 16.534556122549915 C 0.0 **** -0.24
26292 H 99.035390504127 106.16313726260101 17.16667395915306 H 0.0 **** 0.06
26293 H 100.46604833993936 107.16082503225195 16.812998254040465 H 0.0 **** 0.06
26294 H 98.83615985696912 107.86086112706862 16.668612515112727 H 0.0 **** 0.06
26295 H 99.39041193607082 106.64623051781003 15.490762575580789 H 0.0 **** 0.06
26296 C 89.47519616034064 88.62696437925794 9.443807094395103 C 0.0 **** -0.24
26297 H 88.9083276633082 89.24624425638001 10.139859775376468 H 0.0 **** 0.06
26298 H 89.36282751989235 89.02043444346941 8.433545579959205 H 0.0 **** 0.06
26299 H 89.10006641266907 87.60517128116723 9.480429074854074 H 0.0 **** 0.06
26300 H 90.5285087146409 88.63795608421162 9.724409283236552 H 0.0 **** 0.06
26301 C 79.48864595036154 70.27849382080105 62.26369433269889 C 0.0 **** -0.24
26302 H 78.43564120921796 70.28368287511756 61.982065457126964 H 0.0 **** 0.06
26303 H 79.74299133114665 71.22821300015015 62.73442424101597 H 0.0 **** 0.06
26304 H 80.10173657183994 70.1381352622302 61.37338870943222 H 0.0 **** 0.06
26305 H 79.67350509941373 69.46412031976524 62.963688326040256 H 0.0 **** 0.06
26306 C 95.44648588142361 79.14804228644562 106.8902089275106 C 0.0 **** -0.24
26307 H 95.39992233701797 78.19074413751107 107.40975088225309 H 0.0 **** 0.06
26308 H 96.0733410250491 79.83785139391235 107.45564484432356 H 0.0 **** 0.06
26309 H 94.44106134631083 79.56067479370454 106.80044977674322 H 0.0 **** 0.06
26310 H 95.8694511624907 79.00187508752056 105.89679400702283 H 0.0 **** 0.06
26311 C 103.27672436569111 38.437028800970126 97.52399892800318 C 0.0 **** -0.24
26312 H 104.1706143588294 38.7739363368255 97.00007176598174 H 0.0 **** 0.06
26313 H 103.5522732482122 37.691064337816016 98.26981297405939 H 0.0 **** 0.06
26314 H 102.58087563718135 37.99710996219244 96.80845803045196 H 0.0 **** 0.06
26315 H 102.80209819586054 39.286117972800554 98.01669696207694 H 0.0 **** 0.06
26316 C 93.37241293816368 90.66473337661064 88.96961071762762 C 0.0 **** -0.24
26317 H 94.35474659031155 90.49354201302903 89.40833133176254 H 0.0 **** 0.06
26318 H 93.415554028207 90.47422641455915 87.89688022217302 H 0.0 **** 0.06
26319 H 93.07100063823765 91.69719337000484 89.14465553235371 H 0.0 **** 0.06
26320 H 92.64742078649346 89.99204050619349 89.42921323861994 H 0.0 **** 0.06
26321 C 24.70936988139681 98.66025391251536 67.02211793119974 C 0.0 **** -0.24
26322 H 24.166299348585113 98.20714914580277 66.1928283611897 H 0.0 **** 0.06
26323 H 24.05093825266613 99.34454385708777 67.55766514538956 H 0.0 **** 0.06
26324 H 25.56815826977092 99.20915206697504 66.63614638350384 H 0.0 **** 0.06
26325 H 25.052432349905445 97.87968127732731 67.70055156333154 H 0.0 **** 0.06
26326 C 39.99195317998431 44.24327250698275 58.9319535736217 C 0.0 **** -0.24
26327 H 40.74085841163668 45.03068051031971 59.01738966346771 H 0.0 **** 0.06
26328 H 40.43283397585378 43.28899511577117 59.22064636782282 H 0.0 **** 0.06
26329 H 39.64286698560767 44.18432402770128 57.900692367944515 H 0.0 **** 0.06
26330 H 39.15119565266673 44.468847967928355 59.58769377055644 H 0.0 **** 0.06
26331 C 58.67301279654458 47.36899724342885 54.24527137815262 C 0.0 **** -0.24
26332 H 57.88276766485208 47.16987446888944 53.520120649881285 H 0.0 **** 0.06
26333 H 58.70950055426067 48.438234331682295 54.45615872534271 H 0.0 **** 0.06
26334 H 59.629993992717175 47.04578990691963 53.837334289250634 H 0.0 **** 0.06
26335 H 58.46638330676478 46.82401871138882 55.166174395912456 H 0.0 **** 0.06
26336 C 61.55367294772876 109.61607616409808 1.9864171236075379 C 0.0 **** -0.24
26337 H 60.465840137828465 109.55661614240894 2.02148872868338 H 0.0 **** 0.06
26338 H 61.864437710163855 110.65118937770822 2.1360291071720496 H 0.0 **** 0.06
26339 H 61.90482798914951 109.26826921179632 1.0153320853466425 H 0.0 **** 0.06
26340 H 61.97732347145795 108.9922728624436 2.7720858164541653 H 0.0 **** 0.06
26341 C 50.3526025310824 72.29966948604016 97.9786268398079 C 0.0 **** -0.24
26342 H 49.90227140755604 73.17733346858694 97.51340365013056 H 0.0 **** 0.06
26343 H 50.90427795395328 72.60359451662086 98.86821131251122 H 0.0 **** 0.06
26344 H 51.03439490498732 71.82442096220714 97.27222836046472 H 0.0 **** 0.06
26345 H 49.569804889687276 71.59499439131469 98.25819179608243 H 0.0 **** 0.06
26346 C 41.66298857702511 12.336129981834958 57.12622182663124 C 0.0 **** -0.24
26347 H 40.85998276452595 12.633648984238903 56.45261304631929 H 0.0 **** 0.06
26348 H 41.282526626127904 12.287602547962365 58.14676263883152 H 0.0 **** 0.06
26349 H 42.47028786354157 13.067963607049677 57.07382681654431 H 0.0 **** 0.06
26350 H 42.04058186037777 11.3571568096215 56.83094979161735 H 0.0 **** 0.06
26351 C 25.284427987685017 49.74522996295525 107.10896297034697 C 0.0 **** -0.24
26352 H 25.65057525573297 49.080318918862304 106.32733443733738 H 0.0 **** 0.06
26353 H 24.847356236252676 50.63414195761345 106.65424935222227 H 0.0 **** 0.06
26354 H 26.111677305572467 50.03651275377649 107.75637137682817 H 0.0 **** 0.06
26355 H 24.526140607823212 49.22849103953388 107.69807324438439 H 0.0 **** 0.06
26356 C 106.18406911463472 21.783039763544338 7.284561580832076 C 0.0 **** -0.24
26357 H 105.7450290909383 20.899936046631467 6.822019325802074 H 0.0 **** 0.06
26358 H 106.36303643492113 22.54149807954306 6.522070635300679 H 0.0 **** 0.06
26359 H 107.1292543475861 21.512675330369575 7.756800662031608 H 0.0 **** 0.06
26360 H 105.50127634730949 22.177263120872055 8.03733427054037 H 0.0 **** 0.06
26361 C 76.71047399959826 5.733655891828306 46.080695304743955 C 0.0 **** -0.24
26362 H 77.27863415892827 6.296454633339522 45.3396552443142 H 0.0 **** 0.06
26363 H 76.22477470923059 4.885656183789791 45.598742625301554 H 0.0 **** 0.06
26364 H 75.95586023459805 6.380241008722663 46.52794742181521 H 0.0 **** 0.06
26365 H 77.38543044211735 5.373211664091031 46.85694300256537 H 0.0 **** 0.06
26366 C 106.4370464411553 91.6619504156003 43.101139302028685 C 0.0 **** -0.24
26367 H 105.50559591250584 91.09942511347683 43.16854073247157 H 0.0 **** 0.06
26368 H 106.26952654384297 92.57331288764999 42.52683513280283 H 0.0 **** 0.06
26369 H 107.19380516414776 91.05350767131571 42.60597125717959 H 0.0 **** 0.06
26370 H 106.77795567604869 91.92188638926416 44.103651122807946 H 0.0 **** 0.06
26371 C 100.77407699922487 12.056650045781964 99.07364353454722 C 0.0 **** -0.24
26372 H 100.62676115960244 12.8149424618355 98.30523131451992 H 0.0 **** 0.06
26373 H 100.73335651287374 11.066054881065327 98.61930131019835 H 0.0 **** 0.06
26374 H 99.98906929344714 12.14421071090311 99.82520177967268 H 0.0 **** 0.06
26375 H 101.74616308190971 12.201496681553976 99.54510704016633 H 0.0 **** 0.06
26376 C 17.618426392289535 81.13807042924765 39.71533568137363 C 0.0 **** -0.24
26377 H 17.896843574780746 82.01746955076776 40.29596532553285 H 0.0 **** 0.06
26378 H 16.605234997276483 80.83385901674184 39.98051375669888 H 0.0 **** 0.06
26379 H 18.31078712735166 80.32481274161901 39.93305632903008 H 0.0 **** 0.06
26380 H 17.659937293719906 81.37595993336606 38.65219825635813 H 0.0 **** 0.06
26381 C 101.55462003351118 104.37749254311447 93.62610932110306 C 0.0 **** -0.24
26382 H 102.00093412752864 105.08872475966024 92.93124661213727 H 0.0 **** 0.06
26383 H 102.02179679356664 104.48345010588974 94.60479750524513 H 0.0 **** 0.06
26384 H 101.70937080387858 103.36388001477366 93.25586265974243 H 0.0 **** 0.06
26385 H 100.48628657622118 104.5743456482179 93.70939891613571 H 0.0 **** 0.06
26386 C 2.747677586532518 94.08815579936048 87.5583772572023 C 0.0 **** -0.24
26387 H 2.118265378321837 93.25406051337762 87.24970589460374 H 0.0 **** 0.06
26388 H 3.6454838512115657 93.70565750486054 88.04507198125067 H 0.0 **** 0.06
26389 H 2.197251174015321 94.71971408217755 88.25492128064975 H 0.0 **** 0.06
26390 H 3.0304962339256463 94.67290191179005 86.68267047844152 H 0.0 **** 0.06
26391 C 73.8100867150589 14.947440666457425 50.06859481526567 C 0.0 **** -0.24
26392 H 72.78743278675131 14.72342219518356 50.37582032588577 H 0.0 **** 0.06
26393 H 74.22524258285102 14.089751034068229 49.539298269239396 H 0.0 **** 0.06
26394 H 74.41486616819293 15.159142750207508 50.95028396967669 H 0.0 **** 0.06
26395 H 73.80954756477661 15.816158075179018 49.41115094346878 H 0.0 **** 0.06
26396 C 109.68856008571042 72.45229564900751 10.830952024627067 C 0.0 **** -0.24
26397 H 109.43299715239839 73.01380227438486 9.932987342555691 H 0.0 **** 0.06
26398 H 109.9891521395956 71.44161711417621 10.553320815033857 H 0.0 **** 0.06
26399 H 108.8209309439765 72.40478401349478 11.488945218489704 H 0.0 **** 0.06
26400 H 110.51064314389872 72.94658527130008 11.34860146834248 H 0.0 **** 0.06
26401 C 46.06982287972397 36.244800187625145 105.00449550149618 C 0.0 **** -0.24
26402 H 45.25031607092981 36.81272348015628 104.56378871869778 H 0.0 **** 0.06
26403 H 45.668114006472706 35.51652205364334 105.70889784704582 H 0.0 **** 0.06
26404 H 46.74158023745804 36.92489288623352 105.52855057614237 H 0.0 **** 0.06
26405 H 46.61761236367204 35.726971895335936 104.2179974358824 H 0.0 **** 0.06
26406 C 61.14703446664268 29.46542902178318 13.674883773020497 C 0.0 **** -0.24
26407 H 60.52153939423539 28.929483417997204 12.960287378118494 H 0.0 **** 0.06
26408 H 61.88658678640786 30.05784391624006 13.136336948638586 H 0.0 **** 0.06
26409 H 61.655390790151756 28.749458882473448 14.320849213441136 H 0.0 **** 0.06
26410 H 60.52462746606939 30.123541302651432 14.280043597959036 H 0.0 **** 0.06
26411 C 103.19891328054524 47.37149503657358 58.29351861086141 C 0.0 **** -0.24
26412 H 102.13430056617159 47.37885823026559 58.525988508049196 H 0.0 **** 0.06
26413 H 103.59722006861193 46.36891979828283 58.4525103567559 H 0.0 **** 0.06
26414 H 103.71717742753597 48.076536602835375 58.94332041647719 H 0.0 **** 0.06
26415 H 103.34552950258717 47.660152559598714 57.2530791791952 H 0.0 **** 0.06
26416 C 90.95730532607948 48.33399610533072 9.655427229716427 C 0.0 **** -0.24
26417 H 90.54829843615238 49.28217962557549 9.306580409171666 H 0.0 **** 0.06
26418 H 90.20675378235313 47.812723974601965 10.250880463691058 H 0.0 **** 0.06
26419 H 91.83995490495732 48.522306170105736 10.266774742146637 H 0.0 **** 0.06
26420 H 91.23321428578927 47.72004216057236 8.799020520980953 H 0.0 **** 0.06
26421 C 54.32813468954002 96.91104185133548 71.3586297556825 C 0.0 **** -0.24
26422 H 54.65665091055841 97.93474622635864 71.18055069488952 H 0.0 **** 0.06
26423 H 53.63899097698217 96.89199610538816 72.20289981516575 H 0.0 **** 0.06
26424 H 55.19244788776848 96.28572217114919 71.57994326948148 H 0.0 **** 0.06
26425 H 53.824128258155255 96.53188176743907 70.46870337518493 H 0.0 **** 0.06
26426 C 25.09296476351659 49.126408421929625 56.1684234878595 C 0.0 **** -0.24
26427 H 25.609651034307433 48.491077501580264 56.88765894396279 H 0.0 **** 0.06
26428 H 24.03344600126414 48.87063921614674 56.15369788992297 H 0.0 **** 0.06
26429 H 25.51795239773287 48.97101133172589 55.17636349506754 H 0.0 **** 0.06
26430 H 25.211006994799163 50.17122184729851 56.45451549256768 H 0.0 **** 0.06
26431 C 45.25329276263335 110.28262646734125 78.50140642283668 C 0.0 **** -0.24
26432 H 46.079172556140264 110.16752586504867 77.79883315857518 H 0.0 **** 0.06
26433 H 44.956270813444036 109.3034548614603 78.87661389010253 H 0.0 **** 0.06
26434 H 44.40866209306 110.75008047718012 77.99547806705448 H 0.0 **** 0.06
26435 H 45.569858331207286 110.91067577817822 79.33377533463488 H 0.0 **** 0.06
26436 C 105.0029865316331 104.34252469375724 75.07399963915063 C 0.0 **** -0.24
26437 H 104.20083889692593 104.41376337703974 75.80914384042545 H 0.0 **** 0.06
26438 H 105.95814915031168 104.23585005890527 75.58828908224868 H 0.0 **** 0.06
26439 H 105.01798702027058 105.2452803720065 74.46327801181666 H 0.0 **** 0.06
26440 H 104.83418434628902 103.47447791632004 74.43621097514452 H 0.0 **** 0.06
26441 C 84.60378714358848 23.593754306834654 27.956960303680262 C 0.0 **** -0.24
26442 H 85.5220211821804 23.014165192494147 28.04805039152302 H 0.0 **** 0.06
26443 H 83.94005727794533 23.113028652334947 27.238836913313094 H 0.0 **** 0.06
26444 H 84.84356855911236 24.60069241172684 27.613630553421984 H 0.0 **** 0.06
26445 H 84.11168477455573 23.64953250566353 28.92800653736475 H 0.0 **** 0.06
26446 C 79.17775536706256 12.163462644534423 72.33479007309518 C 0.0 **** -0.24
26447 H 79.46484731357131 11.119941613352086 72.46153694420131 H 0.0 **** 0.06
26448 H 78.77852309809691 12.311510610711725 71.33072274719194 H 0.0 **** 0.06
26449 H 80.05256750428394 12.799859144074802 72.47529647534685 H 0.0 **** 0.06
26450 H 78.41698510258199 12.422866638777283 73.07047401577836 H 0.0 **** 0.06
26451 C 8.97518498826999 89.5772447898165 18.960484807562153 C 0.0 **** -0.24
26452 H 8.624895823626177 88.9688776804908 19.79477176699305 H 0.0 **** 0.06
26453 H 8.120088686958518 90.00157722478643 18.43541245646037 H 0.0 **** 0.06
26454 H 9.55277557520264 88.95598704418417 18.275256590247665 H 0.0 **** 0.06
26455 H 9.605702344357251 90.38216003028639 19.339037423859423 H 0.0 **** 0.06
26456 C 30.96566658209487 58.094222226299046 60.2612164980801 C 0.0 **** -0.24
26457 H 30.834970681774607 57.897081438641756 59.19701217461591 H 0.0 **** 0.06
26458 H 31.882610332973115 57.61908750380623 60.608407848229064 H 0.0 **** 0.06
26459 H 30.115858332192374 57.68936873240058 60.81180198198089 H 0.0 **** 0.06
26460 H 31.02661790810832 59.16945083575037 60.42638627526367 H 0.0 **** 0.06
26461 C 11.640641930259246 42.63674410627266 57.892522693348496 C 0.0 **** -0.24
26462 H 12.544460143984928 42.02697049886257 57.878900800722235 H 0.0 **** 0.06
26463 H 11.76680208328293 43.48818483039233 57.22408943626569 H 0.0 **** 0.06
26464 H 11.458879496787866 42.99402468556141 58.90592375680562 H 0.0 **** 0.06
26465 H 10.793272293116956 42.036843908399874 57.56056308294527 H 0.0 **** 0.06
26466 C 27.762556976553782 97.2190212544979 9.345624249612479 C 0.0 **** -0.24
26467 H 28.182255997958563 96.32187562534678 8.89045374518773 H 0.0 **** 0.06
26468 H 26.70463009084866 97.05888967080455 9.554634617827515 H 0.0 **** 0.06
26469 H 27.875345683105174 98.06019402758808 8.66130208150271 H 0.0 **** 0.06
26470 H 28.289593166151853 97.4338353744384 10.27522065583481 H 0.0 **** 0.06
26471 C 3.2668339469344527 103.70749347005862 21.890003142853217 C 0.0 **** -0.24
26472 H 3.228221809911645 104.02735631785916 22.93152972306997 H 0.0 **** 0.06
26473 H 4.139982793962714 103.07292457867815 21.738338568513143 H 0.0 **** 0.06
26474 H 3.3355257632596285 104.58192349970918 21.243484581096737 H 0.0 **** 0.06
26475 H 2.3632291003135144 103.14726519804523 21.648805469017688 H 0.0 **** 0.06
26476 C 72.93944005029459 2.1714922182088117 89.37962509287614 C 0.0 **** -0.24
26477 H 73.42600088101369 1.946962929838861 90.3292097003919 H 0.0 **** 0.06
26478 H 72.10255526020188 1.4884599243258094 89.23011414430898 H 0.0 **** 0.06
26479 H 73.65583866137439 2.0513096618935265 88.5674195295571 H 0.0 **** 0.06
26480 H 72.57413236959601 3.1974452347988063 89.39220848217695 H 0.0 **** 0.06
26481 C 25.02574234481972 91.45653277542861 28.42370286645945 C 0.0 **** -0.24
26482 H 24.7842958243682 90.45202203386552 28.772935654042925 H 0.0 **** 0.06
26483 H 25.121331877723264 92.12552728827464 29.27952747831631 H 0.0 **** 0.06
26484 H 24.230327641278507 91.81406761377634 27.76992001813761 H 0.0 **** 0.06
26485 H 25.965301894567972 91.43318116308131 27.872968618194136 H 0.0 **** 0.06
26486 C 83.6887180051403 46.26435410086788 76.11706548781952 C 0.0 **** -0.24
26487 H 83.77990476583288 45.54411019096261 75.30484916854738 H 0.0 **** 0.06
26488 H 84.42091145348515 46.03337411779603 76.89083983321304 H 0.0 **** 0.06
26489 H 82.68483791093855 46.212565566739954 76.53768336605627 H 0.0 **** 0.06
26490 H 83.87025867441827 47.26902988463024 75.73381707964005 H 0.0 **** 0.06
26491 C 84.87804026535395 40.672581908620515 105.72423395202453 C 0.0 **** -0.24
26492 H 85.75705350723786 40.762913749675356 105.08551754776695 H 0.0 **** 0.06
26493 H 85.02788586239424 39.86095223807866 106.4362482142798 H 0.0 **** 0.06
26494 H 84.00346118198019 40.46063377680774 105.1100124149088 H 0.0 **** 0.06
26495 H 84.72477724197455 41.60715032819635 106.26469125079153 H 0.0 **** 0.06
26496 C 52.33043560768397 34.332755060311975 57.67383028826214 C 0.0 **** -0.24
26497 H 52.942917986331906 35.152360592918235 58.04988859340767 H 0.0 **** 0.06
26498 H 51.80714177824149 33.86015857114405 58.50540102367967 H 0.0 **** 0.06
26499 H 52.96889784633606 33.59928325091386 57.18110032036833 H 0.0 **** 0.06
26500 H 51.60432712200941 34.72029507532014 56.9601399710898 H 0.0 **** 0.06
26501 C 109.19441140548616 64.80532401586692 65.1523281097729 C 0.0 **** -0.24
26502 H 108.2672051031899 65.07900793564573 64.64840119080833 H 0.0 **** 0.06
26503 H 109.12278668170222 65.06505848953938 66.20883824662371 H 0.0 **** 0.06
26504 H 110.0264939859797 65.34539773109358 64.70082652317853 H 0.0 **** 0.06
26505 H 109.35995455356817 63.73288026633416 65.05191606929657 H 0.0 **** 0.06
26506 C 90.99744074771922 107.82353164376649 110.64320540899075 C 0.0 **** -0.24
26507 H 90.00710896087631 108.22747069630016 110.85416735340613 H 0.0 **** 0.06
26508 H 91.7568080372996 108.53672447744954 110.96543992657735 H 0.0 **** 0.06
26509 H 91.09735227581979 107.64531053906865 109.5729369324896 H 0.0 **** 0.06
26510 H 91.12939217898543 106.88501619160792 111.18170452943463 H 0.0 **** 0.06
26511 C 5.198708393288598 0.497774693434053 13.932092871492983 C 0.0 **** -0.24
26512 H 5.202788750305103 -0.16046540611037585 14.801179794230364 H 0.0 **** 0.06
26513 H 6.1450034901464505 0.3998751904264566 13.399001822811186 H 0.0 **** 0.06
26514 H 5.0705744927550995 1.528887726048083 14.259447850808911 H 0.0 **** 0.06
26515 H 4.378616957469831 0.2203891195687504 13.270628618449805 H 0.0 **** 0.06
26516 C 34.84498479140768 71.29698845851595 34.46498396315562 C 0.0 **** -0.24
26517 H 34.289419563630595 70.5969158021023 35.087410013370146 H 0.0 **** 0.06
26518 H 34.5303929271153 72.31601158966913 34.69362478807895 H 0.0 **** 0.06
26519 H 34.64866334326249 71.08269313068081 33.41349110356683 H 0.0 **** 0.06
26520 H 35.91151176941729 71.19284686930985 34.66409312839912 H 0.0 **** 0.06
26521 C 42.1430936907438 54.782085283624156 18.80874217755249 C 0.0 **** -0.24
26522 H 43.01241205072802 54.260497187782335 19.209928181839473 H 0.0 **** 0.06
26523 H 42.417797051581715 55.80713329099535 18.55946444271774 H 0.0 **** 0.06
26524 H 41.34787175364198 54.78904700206152 19.553694055643803 H 0.0 **** 0.06
26525 H 41.795445337041485 54.26961745846705 17.911183749389835 H 0.0 **** 0.06
26526 C 108.20309309232911 81.55515852398467 34.53135649720568 C 0.0 **** -0.24
26527 H 108.84019884076251 81.41211356631058 33.65846581258458 H 0.0 **** 0.06
26528 H 107.1872915458891 81.78159705885403 34.20743283720536 H 0.0 **** 0.06
26529 H 108.58712272745964 82.38351616167013 35.128880325427474 H 0.0 **** 0.06
26530 H 108.19901596817247 80.6460560301903 35.13128372517369 H 0.0 **** 0.06
26531 C 37.15434512653844 8.068328460686502 7.346441158438239 C 0.0 **** -0.24
26532 H 37.22472916790332 7.076350701421347 6.900164399746927 H 0.0 **** 0.06
26533 H 38.066520749575545 8.28052060786331 7.904251040204599 H 0.0 **** 0.06
26534 H 36.29923646586395 8.10293037836567 8.021474206717997 H 0.0 **** 0.06
26535 H 37.02654588776199 8.812353484979809 6.560607323391707 H 0.0 **** 0.06
26536 C 110.09254045072959 78.83836824848144 23.38943474583357 C 0.0 **** -0.24
26537 H 109.9186049830538 79.50905130134808 24.230282756354484 H 0.0 **** 0.06
26538 H 110.46983510448365 79.41018232997249 22.54140281762767 H 0.0 **** 0.06
26539 H 109.15538327355728 78.35362250680019 23.11229431061861 H 0.0 **** 0.06
26540 H 110.82344358593144 78.08181906043089 23.673340749386398 H 0.0 **** 0.06
26541 C 38.630564644066595 96.43221397433338 78.59490791553492 C 0.0 **** -0.24
26542 H 39.33261694859846 95.9782273323922 77.89508475632834 H 0.0 **** 0.06
26543 H 39.18090087411491 97.00361485928399 79.34202287761661 H 0.0 **** 0.06
26544 H 38.05178002539142 95.65106186162839 79.08699574863616 H 0.0 **** 0.06
26545 H 37.95657869217749 97.09665972051954 78.05263805259881 H 0.0 **** 0.06
26546 C 105.42337432847799 62.1393194769376 39.51809766466107 C 0.0 **** -0.24
26547 H 106.25255593305212 61.43172742944495 39.54099145062219 H 0.0 **** 0.06
26548 H 105.24619375215477 62.52279887310755 40.52251754098813 H 0.0 **** 0.06
26549 H 104.52701592385628 61.63557627308751 39.15674864910119 H 0.0 **** 0.06
26550 H 105.66959690410616 62.96445749530966 38.85036239692903 H 0.0 **** 0.06
26551 C 61.32975224437325 58.27024584117842 50.8326820490061 C 0.0 **** -0.24
26552 H 61.05231852483945 58.656128794885376 49.85237110452916 H 0.0 **** 0.06
26553 H 61.09114943452079 57.207644947258416 50.886028193539566 H 0.0 **** 0.06
26554 H 60.775256893547066 58.80535755095735 51.6044372963346 H 0.0 **** 0.06
26555 H 62.3986396521164 58.41132697647137 50.98962949892964 H 0.0 **** 0.06
26556 C 44.53021650996948 99.89768055466978 38.78151799311826 C 0.0 **** -0.24
26557 H 45.576211428643546 100.16171304523007 38.93559322938282 H 0.0 **** 0.06
26558 H 43.92791421367457 100.80620426850176 38.75030277054947 H 0.0 **** 0.06
26559 H 44.191169539631346 99.26541498668956 39.601579631380304 H 0.0 **** 0.06
26560 H 44.42679315731061 99.3590872101631 37.83987128667849 H 0.0 **** 0.06
26561 C 70.97840569794583 59.422715189153394 6.046355103675566 C 0.0 **** -0.24
26562 H 70.2605542441157 59.55645670576672 5.237299350361917 H 0.0 **** 0.06
26563 H 70.58858338938644 58.697510977715524 6.761291602401341 H 0.0 **** 0.06
26564 H 71.14119075328115 60.37624563104765 6.5482648867091395 H 0.0 **** 0.06
26565 H 71.92204594143202 59.06117669750489 5.638966231766673 H 0.0 **** 0.06
26566 C 101.57606524223493 48.40437506185924 82.48275206390775 C 0.0 **** -0.24
26567 H 102.60432722178548 48.068821613973626 82.3506086550048 H 0.0 **** 0.06
26568 H 101.28745049035203 49.03173225192094 81.63910389152761 H 0.0 **** 0.06
26569 H 101.49732450117833 48.977640524106796 83.40615463444254 H 0.0 **** 0.06
26570 H 100.91548237689975 47.53792924764427 82.53512331777108 H 0.0 **** 0.06
26571 C 3.190321620065504 90.1450708508138 93.16173225246837 C 0.0 **** -0.24
26572 H 2.4250485420703995 89.93024467144608 93.90734645699786 H 0.0 **** 0.06
26573 H 3.30148952049079 91.22449364791032 93.05744002266601 H 0.0 **** 0.06
26574 H 2.894964512640371 89.71484602557143 92.20434802896762 H 0.0 **** 0.06
26575 H 4.137673570945552 89.70996014362652 93.47782182112365 H 0.0 **** 0.06
26576 C 87.85736289546938 19.93198500970027 84.24825142090572 C 0.0 **** -0.24
26577 H 87.61398521532176 19.814798754960066 85.30437425053836 H 0.0 **** 0.06
26578 H 87.70323456546012 20.96937710056193 83.9529333015222 H 0.0 **** 0.06
26579 H 87.2131917693089 19.28450156933343 83.65365116168493 H 0.0 **** 0.06
26580 H 88.90001521648026 19.65814356727509 84.08371939349223 H 0.0 **** 0.06
26581 C 28.526664041794476 29.4128892938516 13.401371403809378 C 0.0 **** -0.24
26582 H 27.980439494507777 29.036676882871305 12.535782731431937 H 0.0 **** 0.06
26583 H 29.467744113488777 28.872517068473975 13.498689636005068 H 0.0 **** 0.06
26584 H 27.927710133458163 29.265729825434065 14.300737901189407 H 0.0 **** 0.06
26585 H 28.72833438014942 30.475445415241346 13.26944246463492 H 0.0 **** 0.06
26586 C 26.106354299522735 76.36031948906557 104.06538177472447 C 0.0 **** -0.24
26587 H 26.980276880195248 76.11064872374601 103.4631678628489 H 0.0 **** 0.06
26588 H 25.342419110005466 76.8057501870003 103.4282952496834 H 0.0 **** 0.06
26589 H 26.39134073668788 77.06997585585718 104.842638068643 H 0.0 **** 0.06
26590 H 25.71303264705844 75.45503461097579 104.52692273365068 H 0.0 **** 0.06
26591 C 13.091053179723332 43.20075185309699 0.5325522644623959 C 0.0 **** -0.24
26592 H 12.657569223194201 42.344768753365074 0.015118851577000214 H 0.0 **** 0.06
26593 H 12.296389772371583 43.77634027663892 1.0094672201297499 H 0.0 **** 0.06
26594 H 13.61618456081132 43.830525069097064 -0.18477360432157752 H 0.0 **** 0.06
26595 H 13.791632331034094 42.85130869354494 1.2906373772637494 H 0.0 **** 0.06
26596 C 11.000132581257532 22.55633716474034 79.66499961837371 C 0.0 **** -0.24
26597 H 10.281052959694236 23.043792055259075 80.32419686955865 H 0.0 **** 0.06
26598 H 11.08786042359931 21.504813093512553 79.93824251945293 H 0.0 **** 0.06
26599 H 11.971048008181626 23.04131101687551 79.76505119228096 H 0.0 **** 0.06
26600 H 10.658026249587707 22.63678392156237 78.63334982594785 H 0.0 **** 0.06
26601 C 17.721449471445315 92.95370726145127 93.74949082282677 C 0.0 **** -0.24
26602 H 16.69063852741473 92.71097373612545 94.0037227360403 H 0.0 **** 0.06
26603 H 18.02788531597201 92.37198414461406 92.8798943414443 H 0.0 **** 0.06
26604 H 18.370200695119717 92.71527865093401 94.59252545788331 H 0.0 **** 0.06
26605 H 17.798355976376094 94.01708921591501 93.52214977034835 H 0.0 **** 0.06
26606 C 14.920678639712932 51.12533939808205 78.6558290823852 C 0.0 **** -0.24
26607 H 14.510376480250557 50.65646341750252 77.7618396251051 H 0.0 **** 0.06
26608 H 14.72775106480752 50.489927430219325 79.52037944501278 H 0.0 **** 0.06
26609 H 14.448303074218188 52.09615836729216 78.8057009786361 H 0.0 **** 0.06
26610 H 15.995474751102961 51.25989259795767 78.534984236898 H 0.0 **** 0.06
26611 C 84.82481166426749 56.98214559866566 95.87793233633192 C 0.0 **** -0.24
26612 H 84.71815358743191 57.136443823646346 96.95210499045515 H 0.0 **** 0.06
26613 H 85.61028706124301 56.249420391962595 95.6930948401872 H 0.0 **** 0.06
26614 H 85.08699218805464 57.925221425736865 95.40015518784708 H 0.0 **** 0.06
26615 H 83.88313574226402 56.61622184348858 95.46880644880673 H 0.0 **** 0.06
26616 C 97.30074447998132 106.63775253320449 27.987259858083966 C 0.0 **** -0.24
26617 H 98.34972568301396 106.67689164070026 27.694694879280448 H 0.0 **** 0.06
26618 H 96.9995971058315 105.59889012536581 28.122025905782493 H 0.0 **** 0.06
26619 H 96.68952135192757 107.09578484754422 27.209091842628816 H 0.0 **** 0.06
26620 H 97.16535403620367 107.18065142761344 28.92299859236634 H 0.0 **** 0.06
26621 C 20.07098973775902 43.85277918424932 101.4064759033302 C 0.0 **** -0.24
26622 H 19.691787536352166 42.832608367051314 101.46643361960257 H 0.0 **** 0.06
26623 H 20.392435570406718 44.178958903173296 102.39617543141578 H 0.0 **** 0.06
26624 H 19.282515302643276 44.51226921602522 101.04441005953466 H 0.0 **** 0.06
26625 H 20.916672152188127 43.88661919848609 100.71939668359667 H 0.0 **** 0.06
26626 C 57.566968778682984 13.629445052612056 98.21074942986587 C 0.0 **** -0.24
26627 H 57.97246950383088 12.626561617502205 98.08033982693955 H 0.0 **** 0.06
26628 H 57.72815117896749 13.955283084335946 99.23806560021316 H 0.0 **** 0.06
26629 H 56.49866318395596 13.619961740343541 97.99620125482562 H 0.0 **** 0.06
26630 H 58.06859124797788 14.315973768266701 97.52839103748508 H 0.0 **** 0.06
26631 C 81.16962224562214 83.95040334676236 8.778022185903215 C 0.0 **** -0.24
26632 H 81.30680547343573 83.07133311278432 8.14857639665805 H 0.0 **** 0.06
26633 H 80.72321888971813 83.65187725903195 9.726155041951943 H 0.0 **** 0.06
26634 H 80.5124739977799 84.65863268746824 8.274158044146967 H 0.0 **** 0.06
26635 H 82.13626775488757 84.41975537469327 8.961812511391743 H 0.0 **** 0.06
26636 C 16.69756040191237 55.71159000524217 81.61381835821805 C 0.0 **** -0.24
26637 H 16.35769412940158 56.384892324998695 82.40167920162389 H 0.0 **** 0.06
26638 H 16.304275040117602 56.04728940101441 80.65481459439302 H 0.0 **** 0.06
26639 H 16.340522805137255 54.702081810884536 81.82025998922578 H 0.0 **** 0.06
26640 H 17.787649015200856 55.71175354910025 81.58149835945883 H 0.0 **** 0.06
26641 C 52.150308154747115 101.49732464210058 2.1995831646516137 C 0.0 **** -0.24
26642 H 51.52420965144859 102.31009649517746 1.8331745840197158 H 0.0 **** 0.06
26643 H 53.069552188879385 101.45519251223865 1.6149182631630765 H 0.0 **** 0.06
26644 H 51.61459540570078 100.55347218552234 2.102140441972253 H 0.0 **** 0.06
26645 H 52.3940791289598 101.66987206737929 3.248428667492959 H 0.0 **** 0.06
26646 C 60.8446883366733 53.56147234839326 99.12702995191842 C 0.0 **** -0.24
26647 H 60.61240773487957 54.565520524682576 98.77060497531784 H 0.0 **** 0.06
26648 H 60.93244950613581 52.88620842939419 98.27549346792517 H 0.0 **** 0.06
26649 H 60.047875031343494 53.215643685170456 99.78476605007472 H 0.0 **** 0.06
26650 H 61.78679202684566 53.579451399881805 99.67400990633223 H 0.0 **** 0.06
26651 C 38.49418702043346 81.46082837629024 55.24044970004235 C 0.0 **** -0.24
26652 H 38.05347748372412 80.74274317242414 55.93155782893382 H 0.0 **** 0.06
26653 H 37.915176885294045 82.384484568003 55.25932474284497 H 0.0 **** 0.06
26654 H 38.48622234908879 81.04800764885 54.23223479912099 H 0.0 **** 0.06
26655 H 39.52131360699133 81.66916945192993 55.539905375347644 H 0.0 **** 0.06
26656 C 14.091426369951236 3.4194565041787808 13.03549955638374 C 0.0 **** -0.24
26657 H 14.579261724330664 2.5929744773906087 13.553238784991283 H 0.0 **** 0.06
26658 H 13.47311016900494 3.0276435282853207 12.227357588198092 H 0.0 **** 0.06
26659 H 14.848553582632206 4.087262050165451 12.624126386372332 H 0.0 **** 0.06
26660 H 13.465099305818583 3.9691209395119973 13.73774176660078 H 0.0 **** 0.06
26661 C 36.02080250665074 100.46934063313144 81.46849546331798 C 0.0 **** -0.24
26662 H 36.90341349154829 100.81418597909156 82.00858929301222 H 0.0 **** 0.06
26663 H 36.31556482295957 100.12291369749306 80.47760731636377 H 0.0 **** 0.06
26664 H 35.31154249807736 101.29029572472076 81.37040552489178 H 0.0 **** 0.06
26665 H 35.556423776598194 99.65019893589265 82.01737613984149 H 0.0 **** 0.06
26666 C 76.01112142515194 76.65934754246084 12.041857603380606 C 0.0 **** -0.24
26667 H 76.59930194783362 76.58485498823848 11.12697220896581 H 0.0 **** 0.06
26668 H 76.20641054286409 75.79040379254315 12.671287278667421 H 0.0 **** 0.06
26669 H 74.95095647960454 76.69510904996852 11.79021468726296 H 0.0 **** 0.06
26670 H 76.28821918514427 77.5671373879398 12.578048029320371 H 0.0 **** 0.06
26671 C 96.07433569123364 17.817292003273636 109.30512948158122 C 0.0 **** -0.24
26672 H 96.77781426590445 18.468497749001923 109.82246363590826 H 0.0 **** 0.06
26673 H 95.99718565645605 18.120828497272292 108.26136841139873 H 0.0 **** 0.06
26674 H 95.09536299674238 17.89209860979324 109.77894504280965 H 0.0 **** 0.06
26675 H 96.42597543136357 16.786846347177196 109.35952609110797 H 0.0 **** 0.06
26676 C 105.69478396072752 74.88681024291716 109.0438769650795 C 0.0 **** -0.24
26677 H 104.62533014979199 74.74951978142956 109.20310509939694 H 0.0 **** 0.06
26678 H 105.86751940436893 75.24966809621259 108.02995810806766 H 0.0 **** 0.06
26679 H 106.2082153825 73.93580732975285 109.18293928412331 H 0.0 **** 0.06
26680 H 106.07760372922188 75.61425928894728 109.76035843109631 H 0.0 **** 0.06
26681 C 66.30795504671677 72.55331494649084 32.11855663368197 C 0.0 **** -0.24
26682 H 65.6463250908839 71.8016634012132 32.54724114177386 H 0.0 **** 0.06
26683 H 67.34353288919138 72.29691005077729 32.342017577191704 H 0.0 **** 0.06
26684 H 66.07516923829904 73.5286241553332 32.54538730403357 H 0.0 **** 0.06
26685 H 66.16676315888434 72.58695833980039 31.037300970497448 H 0.0 **** 0.06
26686 C 77.93142613320998 49.731440277819104 89.03915474293575 C 0.0 **** -0.24
26687 H 77.12038040218192 49.011369036203405 89.14664868883722 H 0.0 **** 0.06
26688 H 78.19343981808186 49.82760196828292 87.98536040626499 H 0.0 **** 0.06
26689 H 78.80033019376401 49.386180589744015 89.5991718844677 H 0.0 **** 0.06
26690 H 77.61129513477374 50.69984587700259 89.4242761480759 H 0.0 **** 0.06
26691 C 15.10263423373928 107.914482823246 21.561292142242877 C 0.0 **** -0.24
26692 H 14.21693011247848 108.28496442394751 22.077443599500782 H 0.0 **** 0.06
26693 H 15.721874629353977 108.75654540407109 21.251933643662 H 0.0 **** 0.06
26694 H 14.798130873938476 107.34425213263651 20.682451711392588 H 0.0 **** 0.06
26695 H 15.671011069953465 107.27075773298714 22.232200097419366 H 0.0 **** 0.06
26696 C 109.77932074477215 101.64495912647523 42.19148911791734 C 0.0 **** -0.24
26697 H 109.8498202090273 100.90257082752731 42.98715753253839 H 0.0 **** 0.06
26698 H 109.69438165475034 101.13791019670865 41.23012524961632 H 0.0 **** 0.06
26699 H 110.6729710362761 102.26812875185999 42.19735854115004 H 0.0 **** 0.06
26700 H 108.90005540079206 102.26744777076101 42.35296358203078 H 0.0 **** 0.06
26701 C 31.90182425241025 110.49351009020289 2.0546887159104585 C 0.0 **** -0.24
26702 H 32.861318049771654 110.29050655858848 2.530057979001339 H 0.0 **** 0.06
26703 H 31.56944906578761 111.49676174134711 2.3210598544437717 H 0.0 **** 0.06
26704 H 31.16728609175334 109.7641117795139 2.3946423570571502 H 0.0 **** 0.06
26705 H 32.01032870685822 110.42184603877861 0.9725945584921121 H 0.0 **** 0.06
26706 C 27.924292019851293 74.71790748012353 52.120955780378274 C 0.0 **** -0.24
26707 H 27.05688118015064 75.0210556785715 52.706078215980746 H 0.0 **** 0.06
26708 H 27.713088455357024 74.8543758396508 51.060647267766456 H 0.0 **** 0.06
26709 H 28.145839831678984 73.66824962921314 52.31582941121865 H 0.0 **** 0.06
26710 H 28.783451213009585 75.32782027367827 52.40204589050109 H 0.0 **** 0.06
26711 C 79.65447269125939 45.11449537572639 87.71967787963217 C 0.0 **** -0.24
26712 H 78.98343026126199 45.89294822665326 88.0825786123944 H 0.0 **** 0.06
26713 H 80.6547891878753 45.28141056049358 88.12049081839109 H 0.0 **** 0.06
26714 H 79.68947687252745 45.1425742078456 86.63147205218064 H 0.0 **** 0.06
26715 H 79.29022610122705 44.13966765973771 88.04619304267095 H 0.0 **** 0.06
26716 C 88.37680817457291 101.35964643909745 85.56282106196625 C 0.0 **** -0.24
26717 H 89.14426557805234 101.44302846239725 86.33161313243767 H 0.0 **** 0.06
26718 H 87.88571211309261 100.38961618836356 85.64286932819618 H 0.0 **** 0.06
26719 H 88.83797747258677 101.45498941507026 84.57920203705257 H 0.0 **** 0.06
26720 H 87.64041867149547 102.15280855284095 85.69648163988654 H 0.0 **** 0.06
26721 C 15.485236150368465 85.60568321291501 103.7627970690599 C 0.0 **** -0.24
26722 H 15.874779749065969 86.61528886856297 103.63354568978286 H 0.0 **** 0.06
26723 H 15.363146386952835 85.13548396539255 102.78651199771724 H 0.0 **** 0.06
26724 H 14.520975291868204 85.64972668131033 104.2683144875765 H 0.0 **** 0.06
26725 H 16.183431323384536 85.02052063425896 104.36244201170518 H 0.0 **** 0.06
26726 C 17.954651539439496 12.335132472530745 64.75822789876338 C 0.0 **** -0.24
26727 H 18.77831493387059 12.487785875140446 64.05995478326611 H 0.0 **** 0.06
26728 H 17.34443240547202 13.23828307326994 64.80233490267597 H 0.0 **** 0.06
26729 H 18.35424212741532 12.116962267206816 65.7490774852896 H 0.0 **** 0.06
26730 H 17.342546076081533 11.498289949122409 64.4208301210798 H 0.0 **** 0.06
26731 C 76.2701450431072 42.78022062430182 27.931950341921834 C 0.0 **** -0.24
26732 H 75.47073310394731 43.29346895822076 27.397423975846664 H 0.0 **** 0.06
26733 H 76.40290339029025 41.781915631201656 27.51577242255928 H 0.0 **** 0.06
26734 H 76.00821224812881 42.7019018965909 28.9877562844498 H 0.0 **** 0.06
26735 H 77.19645207074517 43.34445446781058 27.828286730574973 H 0.0 **** 0.06
26736 C 32.90041021289801 66.09897470901939 96.26482068416726 C 0.0 **** -0.24
26737 H 33.510403268623634 66.87933326537018 96.72076340987144 H 0.0 **** 0.06
26738 H 32.64647716335338 65.3515616897717 97.01681572540247 H 0.0 **** 0.06
26739 H 33.45942429679741 65.62762478607164 95.45712136957604 H 0.0 **** 0.06
26740 H 31.986106485410772 66.53979211115933 95.8667233639693 H 0.0 **** 0.06
26741 C 2.253065944382186 84.93322093059572 91.07313720888482 C 0.0 **** -0.24
26742 H 1.957729798904566 83.96799774293353 91.48353390824822 H 0.0 **** 0.06
26743 H 2.4871571871506575 84.82099203834139 90.01363742613037 H 0.0 **** 0.06
26744 H 3.133024278209618 85.29927782362243 91.60319802918812 H 0.0 **** 0.06
26745 H 1.4348802539179104 85.64373096695087 91.19121091692082 H 0.0 **** 0.06
26746 C 106.94148021758011 66.08558124081637 59.04145600370893 C 0.0 **** -0.24
26747 H 106.46863681245601 66.98001462689462 58.635853040154075 H 0.0 **** 0.06
26748 H 106.25478019703785 65.5912007315431 59.72867993578791 H 0.0 **** 0.06
26749 H 107.8503398341261 66.36443670738134 59.57358051888494 H 0.0 **** 0.06
26750 H 107.19169188093497 65.40622605816424 58.22645452893141 H 0.0 **** 0.06
26751 C 93.05939493913387 102.48922434035649 15.132676297435268 C 0.0 **** -0.24
26752 H 93.00129044462565 102.11363214354117 16.154096428039622 H 0.0 **** 0.06
26753 H 92.42518044146817 103.36973864070745 15.032475284341658 H 0.0 **** 0.06
26754 H 92.72102768101335 101.71623175306343 14.442157777215812 H 0.0 **** 0.06
26755 H 94.09103097889819 102.7550382523338 14.902053709304482 H 0.0 **** 0.06
26756 C 39.254058526318204 37.82696660251031 93.51977016114591 C 0.0 **** -0.24
26757 H 39.18253201743835 38.254325295787226 92.52031022415167 H 0.0 **** 0.06
26758 H 39.53058014811535 36.77444830530189 93.44686726357736 H 0.0 **** 0.06
26759 H 38.290487518458804 37.91532232445786 94.0220777715225 H 0.0 **** 0.06
26760 H 40.012053407417284 38.36294224448764 94.09081358670858 H 0.0 **** 0.06
26761 C 38.27975833574408 87.4852616059307 2.0413228830672665 C 0.0 **** -0.24
26762 H 37.85774354000591 87.10507073459954 2.971715356073645 H 0.0 **** 0.06
26763 H 37.93932783208095 88.50912755032346 1.8800918785648406 H 0.0 **** 0.06
26764 H 37.952303854952845 86.8592137509861 1.2115588464853886 H 0.0 **** 0.06
26765 H 39.367867218461924 87.46896466797233 2.1020780693722685 H 0.0 **** 0.06
26766 C 86.7200159058578 28.163167886100368 89.05550814086673 C 0.0 **** -0.24
26767 H 85.84119728689636 28.80639703998461 89.02454415929354 H 0.0 **** 0.06
26768 H 87.52555744597336 28.620099428333674 88.48105700866626 H 0.0 **** 0.06
26769 H 86.47441699018155 27.190675393528615 88.62805371026474 H 0.0 **** 0.06
26770 H 87.03940862353147 28.033636569367864 90.08988171586144 H 0.0 **** 0.06
26771 C 5.0318818016292255 91.0370771491776 102.77440823950622 C 0.0 **** -0.24
26772 H 5.844355749207779 90.63257034478627 103.37862185839379 H 0.0 **** 0.06
26773 H 5.369153186437359 91.15849599382858 101.74537414196402 H 0.0 **** 0.06
26774 H 4.730473641037861 92.00544496499026 103.17468522000422 H 0.0 **** 0.06
26775 H 4.1843765030117055 90.35313690665785 102.80150396708893 H 0.0 **** 0.06
26776 C 79.5271357671304 33.65733026930292 57.13279085280692 C 0.0 **** -0.24
26777 H 79.38437185639481 34.64243339503969 56.687303380623405 H 0.0 **** 0.06
26778 H 79.77436795431271 33.768869443401684 58.18883773865025 H 0.0 **** 0.06
26779 H 80.341118212216 33.14334060056075 56.62174102904896 H 0.0 **** 0.06
26780 H 78.60998544201419 33.076405083272505 57.03271104005 H 0.0 **** 0.06
26781 C 105.37362622703313 20.368311477513146 97.41240092129567 C 0.0 **** -0.24
26782 H 105.16175386062196 21.420933112369426 97.59682832245767 H 0.0 **** 0.06
26783 H 106.30363025404637 20.09345614640816 97.91101985125809 H 0.0 **** 0.06
26784 H 105.47212013027584 20.199632217731704 96.34053015588165 H 0.0 **** 0.06
26785 H 104.55848335130509 19.75975864581966 97.80310060353094 H 0.0 **** 0.06
26786 C 7.894891949398398 24.656753918883624 57.66985946200758 C 0.0 **** -0.24
26787 H 7.389773900937829 23.729413680918725 57.39802749752755 H 0.0 **** 0.06
26788 H 8.24207099336235 25.15851435485135 56.766988554042705 H 0.0 **** 0.06
26789 H 8.746861484294152 24.431684953800016 58.311330115139825 H 0.0 **** 0.06
26790 H 7.199467306141875 25.305073827489025 58.20229589883666 H 0.0 **** 0.06
26791 C 66.20270488687382 64.08986606631873 30.95021860821896 C 0.0 **** -0.24
26792 H 65.77582331301207 63.78709481697251 29.993879001480337 H 0.0 **** 0.06
26793 H 66.92047457201946 64.89413437702808 30.78966680679639 H 0.0 **** 0.06
26794 H 66.70580678520044 63.238154372963265 31.407893599304288 H 0.0 **** 0.06
26795 H 65.40661784807163 64.43828540062117 31.60881876480289 H 0.0 **** 0.06
26796 C 83.18537305804864 9.187014383472757 69.21005984771749 C 0.0 **** -0.24
26797 H 82.81479234347006 8.386856802075883 68.56993292858336 H 0.0 **** 0.06
26798 H 83.9915096410378 9.714972175237008 68.7003902249738 H 0.0 **** 0.06
26799 H 83.5606757553436 8.761859516353084 70.14097335685346 H 0.0 **** 0.06
26800 H 82.37581968995352 9.883266210820096 69.42750049428052 H 0.0 **** 0.06
26801 C 31.766870600824788 10.078604190618208 17.15892099498737 C 0.0 **** -0.24
26802 H 30.991206836957844 10.102899044293608 17.924148544788608 H 0.0 **** 0.06
26803 H 31.730233976775125 10.999478413964809 16.575916525179053 H 0.0 **** 0.06
26804 H 31.602305678110625 9.225674396255599 16.50135820222259 H 0.0 **** 0.06
26805 H 32.74341093903193 9.988053494248987 17.634052813319556 H 0.0 **** 0.06
26806 C 66.49203038367307 33.786262165112134 77.6155028349404 C 0.0 **** -0.24
26807 H 65.43878502991262 33.57477973883874 77.4318969450286 H 0.0 **** 0.06
26808 H 67.08936570792042 33.401862128328986 76.78901034749674 H 0.0 **** 0.06
26809 H 66.8025550131392 33.3040958983577 78.54299457624347 H 0.0 **** 0.06
26810 H 66.63791813155089 34.86280503405047 77.7006551501139 H 0.0 **** 0.06
26811 C 100.7990905758553 69.4227888118291 30.48915534301935 C 0.0 **** -0.24
26812 H 100.00222489536696 69.90196944205351 31.058812076240216 H 0.0 **** 0.06
26813 H 100.559779813061 68.36920023925207 30.3461092170634 H 0.0 **** 0.06
26814 H 101.7386574379936 69.51122737113435 31.034584957629463 H 0.0 **** 0.06
26815 H 100.89423542057818 69.90885597870468 29.519076061531848 H 0.0 **** 0.06
26816 C 73.50783792832188 41.38377479461553 96.10616604028803 C 0.0 **** -0.24
26817 H 73.02727645930028 41.10941691483441 95.16710365821484 H 0.0 **** 0.06
26818 H 72.76046792174685 41.420988857910345 96.8991571831765 H 0.0 **** 0.06
26819 H 73.97592766223192 42.36315631859031 96.00206217322739 H 0.0 **** 0.06
26820 H 74.2669916739924 40.643648081380405 96.35607540957483 H 0.0 **** 0.06
26821 C 76.09276445692751 45.623289210563684 84.48382157896782 C 0.0 **** -0.24
26822 H 76.26083831239657 46.25057133503907 83.60842392949549 H 0.0 **** 0.06
26823 H 76.20884859189056 46.222087174513774 85.38761870390235 H 0.0 **** 0.06
26824 H 76.81864075473626 44.80924294531326 84.49176430704212 H 0.0 **** 0.06
26825 H 75.08514308707993 45.21160615670303 84.44724466842385 H 0.0 **** 0.06
26826 C 71.94898997344917 11.307099259777985 59.75611329715578 C 0.0 **** -0.24
26827 H 72.21602454651727 10.306207363789312 60.093516056927456 H 0.0 **** 0.06
26828 H 72.76771975297245 11.722822540347224 59.16775414268871 H 0.0 **** 0.06
26829 H 71.76235960895163 11.94375901991755 60.62119954180632 H 0.0 **** 0.06
26830 H 71.04985598535544 11.255608115057711 59.14198344720069 H 0.0 **** 0.06
26831 C 3.268553990524623 16.690199608680388 101.58619834509184 C 0.0 **** -0.24
26832 H 3.376200445762734 15.872201286058115 100.87273720476259 H 0.0 **** 0.06
26833 H 2.2404562230591694 17.050779620640654 101.57257038308245 H 0.0 **** 0.06
26834 H 3.9431143495769447 17.501740041642677 101.31273318269712 H 0.0 **** 0.06
26835 H 3.5157480140079826 16.333213395332592 102.58643718468636 H 0.0 **** 0.06
26836 C 76.64026716960808 44.16876266389821 44.758624626202675 C 0.0 **** -0.24
26837 H 76.4631845359259 44.78182313727976 43.87501140644281 H 0.0 **** 0.06
26838 H 75.68615664658165 43.90769908124889 45.21689928977082 H 0.0 **** 0.06
26839 H 77.24537553536965 44.72795247350567 45.47285666010623 H 0.0 **** 0.06
26840 H 77.16632980150723 43.25875195566999 44.47051642047296 H 0.0 **** 0.06
26841 C 82.48130247758033 58.91157660409385 21.179612278584315 C 0.0 **** -0.24
26842 H 81.79519777812932 58.29532218880894 20.59883817964635 H 0.0 **** 0.06
26843 H 83.27422674034446 58.2842714180814 21.587661394741076 H 0.0 **** 0.06
26844 H 81.93936170186144 59.38938569523157 21.995747315559555 H 0.0 **** 0.06
26845 H 82.91664908372245 59.67569901235191 20.535655751432827 H 0.0 **** 0.06
26846 C 57.98344194327733 0.18475046788964278 75.78635650749453 C 0.0 **** -0.24
26847 H 58.57500260574883 -0.48218564981556256 76.4139112484878 H 0.0 **** 0.06
26848 H 58.50786355643357 1.1327814759966373 75.6682680145602 H 0.0 **** 0.06
26849 H 57.01485748822799 0.35968896259041117 76.25372184895815 H 0.0 **** 0.06
26850 H 57.8369952372529 -0.27418053335509285 74.80760141715248 H 0.0 **** 0.06
26851 C 93.08056528842246 78.0210971285893 12.695412061430773 C 0.0 **** -0.24
26852 H 93.68967757122164 78.34842075745485 13.537916776069721 H 0.0 **** 0.06
26853 H 92.04875925633223 77.89307176745825 13.021299321536077 H 0.0 **** 0.06
26854 H 93.46422120701203 77.07321366218588 12.317813319724365 H 0.0 **** 0.06
26855 H 93.12255192769595 78.77023387822913 11.904646613838338 H 0.0 **** 0.06
26856 C 97.54367884969525 22.456521355410814 106.46396343040814 C 0.0 **** -0.24
26857 H 96.95954444214465 21.62479237953835 106.85891492128636 H 0.0 **** 0.06
26858 H 96.98557121671541 23.3843055638834 106.59359025241294 H 0.0 **** 0.06
26859 H 97.73762138902975 22.29388861830023 105.40422876282646 H 0.0 **** 0.06
26860 H 98.48961588184068 22.52288528432871 107.000660410847 H 0.0 **** 0.06
26861 C 102.61078499442411 66.70586422960804 1.6722915941866177 C 0.0 **** -0.24
26862 H 103.30497459604072 67.45228780237113 2.058689564283668 H 0.0 **** 0.06
26863 H 101.74762338470985 66.63584488274955 2.334129982497757 H 0.0 **** 0.06
26864 H 103.10954534081141 65.73819539159723 1.6201010122322543 H 0.0 **** 0.06
26865 H 102.28141484197197 66.99859721526616 0.6746120334427985 H 0.0 **** 0.06
26866 C 80.32191148197822 76.34619218524833 108.31320162891328 C 0.0 **** -0.24
26867 H 80.2069941868703 75.4031901061347 108.84888987046176 H 0.0 **** 0.06
26868 H 81.3792586711382 76.60409989393806 108.25615559818432 H 0.0 **** 0.06
26869 H 79.78345263767783 77.13166205689919 108.84327792003282 H 0.0 **** 0.06
26870 H 79.91696826806744 76.24353456748004 107.30668480678577 H 0.0 **** 0.06
26871 C 36.24375627606594 35.19851491905001 91.01416654234941 C 0.0 **** -0.24
26872 H 36.30756516597009 34.1554763093709 91.32572659234211 H 0.0 **** 0.06
26873 H 36.573456831334624 35.84062612129799 91.83133207826165 H 0.0 **** 0.06
26874 H 35.21275760782987 35.437937860885 90.75639714224303 H 0.0 **** 0.06
26875 H 36.8823205472481 35.35728254459548 90.14552437512594 H 0.0 **** 0.06
26876 C 42.95796212437904 12.105605086876494 79.6191298500467 C 0.0 **** -0.24
26877 H 43.091057376487385 13.15913616539979 79.8653790352159 H 0.0 **** 0.06
26878 H 42.10180563521865 11.710623385534678 80.16698138688074 H 0.0 **** 0.06
26879 H 43.85408456859008 11.551454584119135 79.89729614294042 H 0.0 **** 0.06
26880 H 42.78388235017758 12.001510339685385 78.54855701014533 H 0.0 **** 0.06
26881 C 49.63950254339065 97.69696322890371 75.8538666881961 C 0.0 **** -0.24
26882 H 50.05855306906011 98.55297082120983 76.3847221243237 H 0.0 **** 0.06
26883 H 50.43953171731806 97.00138588169949 75.59733153221298 H 0.0 **** 0.06
26884 H 49.15037583592124 98.04069945572084 74.94219502337855 H 0.0 **** 0.06
26885 H 48.911047688650854 97.19537303879018 76.49087338616651 H 0.0 **** 0.06
26886 C 75.65114056731474 56.140108841895284 95.33949822602645 C 0.0 **** -0.24
26887 H 74.93950123106697 55.316964375175075 95.40478514432621 H 0.0 **** 0.06
26888 H 75.88691481477889 56.49693474453474 96.34269440438334 H 0.0 **** 0.06
26889 H 75.2144478189798 56.95219738746485 94.75819592136884 H 0.0 **** 0.06
26890 H 76.56340438813731 55.79471087485007 94.85364982294479 H 0.0 **** 0.06
26891 C 28.40828652417804 59.25681734544354 31.23581314050891 C 0.0 **** -0.24
26892 H 28.13396881423114 59.482058894987816 32.2661610161918 H 0.0 **** 0.06
26893 H 27.512716648853143 59.25124019281277 30.614285796662244 H 0.0 **** 0.06
26894 H 28.887618834667762 58.27910197617211 31.193482380617212 H 0.0 **** 0.06
26895 H 29.10024840436097 60.01623917387943 30.87078710232636 H 0.0 **** 0.06
26896 C 74.36316563944047 74.82289525360727 43.1076452660451 C 0.0 **** -0.24
26897 H 74.13873220099407 74.94326701599641 42.04798966936849 H 0.0 **** 0.06
26898 H 74.86647311695936 75.71634733897508 43.47632758973842 H 0.0 **** 0.06
26899 H 75.01117126948725 73.95687150522548 43.24582032750908 H 0.0 **** 0.06
26900 H 73.43555939895896 74.67390110324038 43.66065896965017 H 0.0 **** 0.06
26901 C 48.77980390445622 104.16553676309135 46.48615140641871 C 0.0 **** -0.24
26902 H 48.374196587255874 103.28426975785679 45.988636652848044 H 0.0 **** 0.06
26903 H 48.43413264724393 105.06369129704852 45.97330581458493 H 0.0 **** 0.06
26904 H 49.86858582260357 104.12780489653848 46.45996084982599 H 0.0 **** 0.06
26905 H 48.440328380605436 104.18596093287222 47.52173576002667 H 0.0 **** 0.06
26906 C 76.52610863195662 101.29988057670793 73.39526972168996 C 0.0 **** -0.24
26907 H 76.43792282695347 102.01073524529642 74.2167279523849 H 0.0 **** 0.06
26908 H 77.52492860422564 101.3669935833961 72.96267834596517 H 0.0 **** 0.06
26909 H 75.78290322294575 101.53276508629965 72.6320670582239 H 0.0 **** 0.06
26910 H 76.35825269085299 100.28989506936662 73.76934778000575 H 0.0 **** 0.06
26911 C 9.00217618518127 75.19656027531924 26.790099739611435 C 0.0 **** -0.24
26912 H 8.859099482578017 74.83025913722682 25.773721245357933 H 0.0 **** 0.06
26913 H 8.066882870940844 75.61824976626994 27.15909046291563 H 0.0 **** 0.06
26914 H 9.77477573813053 75.96571150075619 26.793574757854486 H 0.0 **** 0.06
26915 H 9.30822960785838 74.3711742208601 27.43356142390948 H 0.0 **** 0.06
26916 C 20.165236560349385 59.49194124814446 12.996909166202446 C 0.0 **** -0.24
26917 H 21.135679202398336 59.88417730511881 12.690826259415132 H 0.0 **** 0.06
26918 H 20.277881441485036 58.456336802017745 13.31878232001527 H 0.0 **** 0.06
26919 H 19.4740981676093 59.53809119174093 12.155566421354585 H 0.0 **** 0.06
26920 H 19.77537851279284 60.08872824762523 13.82035413486999 H 0.0 **** 0.06
26921 C 56.53013248976953 66.55741822068032 13.32445620957077 C 0.0 **** -0.24
26922 H 55.64815279595382 65.91973744503868 13.28453528625323 H 0.0 **** 0.06
26923 H 56.303435847222715 67.45600113693018 13.89818271388242 H 0.0 **** 0.06
26924 H 56.82318238762787 66.83646554962117 12.312298572292377 H 0.0 **** 0.06
26925 H 57.34715573448955 66.01743949568905 13.803027758607868 H 0.0 **** 0.06
26926 C 12.99431107269389 73.00800310360539 52.43727925056211 C 0.0 **** -0.24
26927 H 12.07203172416412 73.14406174678578 51.87364238601694 H 0.0 **** 0.06
26928 H 13.664070102862478 72.34791807633655 51.885059740726945 H 0.0 **** 0.06
26929 H 12.764777296435682 72.56448184738204 53.406407156423484 H 0.0 **** 0.06
26930 H 13.476189568050042 73.97440863427084 52.58482310304555 H 0.0 **** 0.06
26931 C 42.75679394185312 30.46199133213065 49.9932992430538 C 0.0 **** -0.24
26932 H 42.721492871666754 29.403140549016896 49.73801203382732 H 0.0 **** 0.06
26933 H 43.13502009031484 31.028198458395188 49.141224550482946 H 0.0 **** 0.06
26934 H 43.41613045150058 30.608739745140056 50.84881020437257 H 0.0 **** 0.06
26935 H 41.753798113415996 30.80927841456166 50.244426424569724 H 0.0 **** 0.06
26936 C 102.49537906467386 45.61343948235117 27.43659437265154 C 0.0 **** -0.24
26937 H 101.94889890570018 44.91380153784564 28.06941894493781 H 0.0 **** 0.06
26938 H 101.93492084969981 46.54506855094303 27.35714242183448 H 0.0 **** 0.06
26939 H 102.62371847941968 45.18050906829069 26.44356009367121 H 0.0 **** 0.06
26940 H 103.47287349242072 45.81259717688749 27.874988659015344 H 0.0 **** 0.06
26941 C 36.74924469954904 23.695517341732085 84.75831111530783 C 0.0 **** -0.24
26942 H 37.23249473959362 23.188425855891353 85.5932634140953 H 0.0 **** 0.06
26943 H 36.023632813866584 23.02444065187302 84.29720671453777 H 0.0 **** 0.06
26944 H 37.50065474225417 23.978983233358406 84.02138794161209 H 0.0 **** 0.06
26945 H 36.23946358351321 24.588775150757712 85.120772817474 H 0.0 **** 0.06
26946 C 76.37172710877093 70.05798724586023 108.39615146858277 C 0.0 **** -0.24
26947 H 75.37017074115215 69.86940039084452 108.78220917565012 H 0.0 **** 0.06
26948 H 76.68723700510748 71.06218046145686 108.67977663934336 H 0.0 **** 0.06
26949 H 76.36398597067995 69.97239728810348 107.30948952870011 H 0.0 **** 0.06
26950 H 77.06533429769053 69.32708700377191 108.81356218662576 H 0.0 **** 0.06
26951 C 69.77686925820827 8.475928870022827 13.962231732270595 C 0.0 **** -0.24
26952 H 70.0815612257302 8.260767265716822 12.938492520338343 H 0.0 **** 0.06
26953 H 68.81212735716207 8.982867651321584 13.954825560274628 H 0.0 **** 0.06
26954 H 70.52112182553887 9.115449130606308 14.436290442072448 H 0.0 **** 0.06
26955 H 69.69283091919257 7.542447289703205 14.519768716385755 H 0.0 **** 0.06
26956 C 34.53135392979313 66.38177222656239 40.41807244739334 C 0.0 **** -0.24
26957 H 33.489178035851175 66.36010054000076 40.10060522100042 H 0.0 **** 0.06
26958 H 34.68666938757531 67.2188575956011 41.09951868934161 H 0.0 **** 0.06
26959 H 35.17501615955563 66.50038176806706 39.54574997065521 H 0.0 **** 0.06
26960 H 34.77674563972528 65.4487508269747 40.92598556941755 H 0.0 **** 0.06
26961 C 65.19869470988573 28.76412289023753 19.363209057176306 C 0.0 **** -0.24
26962 H 65.64490979860068 29.35241323515173 20.164312820157846 H 0.0 **** 0.06
26963 H 64.55483930935543 27.995557652082084 19.792128030364978 H 0.0 **** 0.06
26964 H 65.98698682408445 28.291866985945774 18.776237440537557 H 0.0 **** 0.06
26965 H 64.60681505040804 29.41490324824605 18.71950327757048 H 0.0 **** 0.06
26966 C 44.06453233229591 22.648456869449262 69.83550677798733 C 0.0 **** -0.24
26967 H 43.58564688338329 23.6146312392182 69.99539599024239 H 0.0 **** 0.06
26968 H 44.066110177572455 22.415760576026344 68.77059378548476 H 0.0 **** 0.06
26969 H 43.51367090346693 21.87727157103791 70.37557505267355 H 0.0 **** 0.06
26970 H 45.090208374131215 22.68653231928323 70.20237275699881 H 0.0 **** 0.06
26971 C 75.96568352676897 21.012945657592866 82.40641159268677 C 0.0 **** -0.24
26972 H 75.40545503611985 20.10296146808298 82.18940792703575 H 0.0 **** 0.06
26973 H 76.29541276101939 21.4672995380364 81.47082512700791 H 0.0 **** 0.06
26974 H 76.83353653756414 20.767996102055008 83.01711160021222 H 0.0 **** 0.06
26975 H 75.32680934874266 21.712671748492767 82.9449911143812 H 0.0 **** 0.06
26976 C 109.8451842634403 61.05039013313694 40.989514394160054 C 0.0 **** -0.24
26977 H 109.514834448383 61.64214885163199 41.843462502882986 H 0.0 **** 0.06
26978 H 110.63103934452039 61.586961544914686 40.45746489827377 H 0.0 **** 0.06
26979 H 109.00258994961149 60.87988323092259 40.318950467222905 H 0.0 **** 0.06
26980 H 110.23044199858771 60.092883769293394 41.33977538763962 H 0.0 **** 0.06
26981 C 26.151926801413026 22.11839179007751 3.397945584355398 C 0.0 **** -0.24
26982 H 25.76965131499614 23.0676039635505 3.7715956427464903 H 0.0 **** 0.06
26983 H 26.00192419533647 21.344766807526664 4.152290620379233 H 0.0 **** 0.06
26984 H 27.21535935840535 22.214308110880815 3.181661220993931 H 0.0 **** 0.06
26985 H 25.61923640344108 21.84540199335482 2.4868922091113177 H 0.0 **** 0.06
26986 C 81.98647050603768 16.56720333191967 41.69765401648849 C 0.0 **** -0.24
26987 H 82.87611297917846 17.18772621689979 41.81109305407834 H 0.0 **** 0.06
26988 H 81.19192039032833 16.951556236509248 42.33724739579946 H 0.0 **** 0.06
26989 H 82.22067906148612 15.541671921464769 41.98430091128324 H 0.0 **** 0.06
26990 H 81.65933942044421 16.58822015337256 40.65837674345348 H 0.0 **** 0.06
26991 C 68.71157243994112 34.555789317716574 101.41533547526359 C 0.0 **** -0.24
26992 H 69.52589177545534 34.30017425188771 100.737604206077 H 0.0 **** 0.06
26993 H 68.93065550754615 34.16615873162556 102.40950817253032 H 0.0 **** 0.06
26994 H 67.78328387994341 34.11888728415005 101.04963941916202 H 0.0 **** 0.06
26995 H 68.60786222020518 35.64076697627786 101.46473706097288 H 0.0 **** 0.06
26996 C 99.9749305153195 50.105257881157456 37.99002648705721 C 0.0 **** -0.24
26997 H 99.17773720707785 50.24979178186578 38.71907072651203 H 0.0 **** 0.06
26998 H 100.89604587699606 49.83549775943254 38.508170076371016 H 0.0 **** 0.06
26999 H 100.1285735265862 51.0285113849572 37.432966853885546 H 0.0 **** 0.06
27000 H 99.69741953584827 49.3070145202999 37.30233769440372 H 0.0 **** 0.06
27001 C 3.5723782128171173 67.70794964268093 20.0112466638558 C 0.0 **** -0.24
27002 H 4.331075548497173 68.40687579792794 20.364922178408932 H 0.0 **** 0.06
27003 H 3.2183459509642898 68.02308679490172 19.02993150506579 H 0.0 **** 0.06
27004 H 2.7377655619221475 67.69165659328502 20.711448022167218 H 0.0 **** 0.06
27005 H 4.005600066936758 66.70966175814408 19.938576664586478 H 0.0 **** 0.06
27006 C 47.842093885019096 58.08831411030002 16.310349580733273 C 0.0 **** -0.24
27007 H 48.255455176957014 57.144165002627005 16.66705913793453 H 0.0 **** 0.06
27008 H 47.17806073516843 58.50312753858486 17.068351230443824 H 0.0 **** 0.06
27009 H 47.2816927273233 57.91386627257398 15.391769026476496 H 0.0 **** 0.06
27010 H 48.65362423136523 58.78841047009908 16.113775731265292 H 0.0 **** 0.06
27011 C 32.04568562875198 59.493413276605395 63.87233743026229 C 0.0 **** -0.24
27012 H 31.89112214737095 59.768953351239304 62.8290519769792 H 0.0 **** 0.06
27013 H 32.31525882092154 58.43828770130398 63.932388406603195 H 0.0 **** 0.06
27014 H 31.1271674344097 59.666282364545566 64.43317014720134 H 0.0 **** 0.06
27015 H 32.848209100649086 60.098795924857484 64.29204636142998 H 0.0 **** 0.06
27016 C 41.332685816761455 69.77897071738397 43.646013617704995 C 0.0 **** -0.24
27017 H 40.585798948323614 68.99780322072691 43.79127935045551 H 0.0 **** 0.06
27018 H 41.60423860808961 70.20567771031224 44.61109284243322 H 0.0 **** 0.06
27019 H 40.920384405608836 70.55977997023984 43.00665049255215 H 0.0 **** 0.06
27020 H 42.217021441570964 69.35139879919757 43.17424730322307 H 0.0 **** 0.06
27021 C 81.21188358028425 53.133218185852854 90.87796659180725 C 0.0 **** -0.24
27022 H 80.17764100158533 53.32050749818301 90.58563999599676 H 0.0 **** 0.06
27023 H 81.62096571491634 54.02491368319893 91.35421730131989 H 0.0 **** 0.06
27024 H 81.79984931530501 52.889887548858255 89.99382002407768 H 0.0 **** 0.06
27025 H 81.24472295545954 52.29866576997657 91.57728447154619 H 0.0 **** 0.06
27026 C 51.81448034956439 61.42468782157994 96.93250941056047 C 0.0 **** -0.24
27027 H 51.39633580142972 61.3625684961886 95.92743971318365 H 0.0 **** 0.06
27028 H 51.55935852663893 62.38921223782168 97.37229489585992 H 0.0 **** 0.06
27029 H 52.898396741119974 61.323196564451735 96.88064901457756 H 0.0 **** 0.06
27030 H 51.40273585356244 60.62425319395345 97.54751561114081 H 0.0 **** 0.06
27031 C 46.09748314075087 23.483128583986357 8.30339621476341 C 0.0 **** -0.24
27032 H 45.15798263738114 23.04122507563902 7.9696270017315385 H 0.0 **** 0.06
27033 H 45.9261270008926 24.0486149002637 9.219908671316773 H 0.0 **** 0.06
27034 H 46.48039760063656 24.148656852055936 7.531115006028756 H 0.0 **** 0.06
27035 H 46.82246455716798 22.692079021647487 8.495274486564 H 0.0 **** 0.06
27036 C 55.5846836780859 24.4385796397504 81.51925014925177 C 0.0 **** -0.24
27037 H 55.385821470490235 23.573127323057378 82.15057636654853 H 0.0 **** 0.06
27038 H 55.083968855212426 24.310765512631775 80.55921526559894 H 0.0 **** 0.06
27039 H 56.6579517714821 24.53355200259182 81.36065166256901 H 0.0 **** 0.06
27040 H 55.208694556111126 25.338201032126932 82.00827709059683 H 0.0 **** 0.06
27041 C 84.35202648105033 28.32567693937355 59.70179333612475 C 0.0 **** -0.24
27042 H 85.25632002963519 28.086039740467754 59.141771945840304 H 0.0 **** 0.06
27043 H 84.0435080036386 29.345958667227876 59.474843441487565 H 0.0 **** 0.06
27044 H 84.55140166053963 28.23427013276884 60.769647296712236 H 0.0 **** 0.06
27045 H 83.55714801155466 27.63400502736215 59.420944679917454 H 0.0 **** 0.06
27046 C 79.7118529136708 38.44889963315555 93.99314990181655 C 0.0 **** -0.24
27047 H 79.98093362370476 39.319111724289684 93.39395857181985 H 0.0 **** 0.06
27048 H 78.71298115881719 38.111897153889785 93.71521051742145 H 0.0 **** 0.06
27049 H 79.72483105668337 38.71705813253061 95.04938155192971 H 0.0 **** 0.06
27050 H 80.42940225203172 37.648288805486274 93.81207806929987 H 0.0 **** 0.06
27051 C 103.10286365936419 82.7701921530953 31.64279244209441 C 0.0 **** -0.24
27052 H 102.35627112594507 82.47635117358428 30.90514226217654 H 0.0 **** 0.06
27053 H 102.74971587918672 82.50802000961504 32.64064523553413 H 0.0 **** 0.06
27054 H 103.26569405143222 83.84624037154775 31.58622212136548 H 0.0 **** 0.06
27055 H 104.03863024367581 82.2498284524555 31.439924936330463 H 0.0 **** 0.06
27056 C 90.52253187557102 53.49183713904238 104.60116404559207 C 0.0 **** -0.24
27057 H 90.386849474732 54.522366037669215 104.27471320698425 H 0.0 **** 0.06
27058 H 91.39253056779324 53.429325876747924 105.2550840446743 H 0.0 **** 0.06
27059 H 90.67488132353668 52.85205607978823 103.73202218983826 H 0.0 **** 0.06
27060 H 89.6351333130159 53.16247979492069 105.14329166057689 H 0.0 **** 0.06
27061 C 47.049986736513944 75.48571771173974 82.70201998253259 C 0.0 **** -0.24
27062 H 45.9987669119692 75.76584777288734 82.6385319193065 H 0.0 **** 0.06
27063 H 47.37602252813275 75.07973411874927 81.74482267858104 H 0.0 **** 0.06
27064 H 47.17986258034392 74.73309667443002 83.4797111625877 H 0.0 **** 0.06
27065 H 47.646015743256925 76.36628310262431 82.94534452974898 H 0.0 **** 0.06
27066 C 32.946625011002595 2.039864525167374 14.688730949385487 C 0.0 **** -0.24
27067 H 32.45437242756307 1.8347289436773764 15.639812734345842 H 0.0 **** 0.06
27068 H 34.025559659078496 1.9486380701047494 14.811915629571622 H 0.0 **** 0.06
27069 H 32.70139289374322 3.0504500652572517 14.364239444202234 H 0.0 **** 0.06
27070 H 32.60330929822396 1.3242523669058244 13.941320542355289 H 0.0 **** 0.06
27071 C 27.487656466020724 25.94093510131694 36.038912880244595 C 0.0 **** -0.24
27072 H 27.32731770110172 24.911629589722537 35.716518049264465 H 0.0 **** 0.06
27073 H 27.3618270580929 26.005955952698784 37.12031014770204 H 0.0 **** 0.06
27074 H 26.76319183313342 26.591621594958895 35.54878857699778 H 0.0 **** 0.06
27075 H 28.49677510274273 26.253708791502362 35.76986836875449 H 0.0 **** 0.06
27076 C 72.60883016900613 21.96306420801315 49.69149236104528 C 0.0 **** -0.24
27077 H 72.44276438950436 20.916221136348696 49.43870305218084 H 0.0 **** 0.06
27078 H 71.93203983980345 22.588568468922475 49.10954047734674 H 0.0 **** 0.06
27079 H 73.63959261745822 22.232343241981752 49.46339971864347 H 0.0 **** 0.06
27080 H 72.4203004853278 22.11328667869195 50.75481194256946 H 0.0 **** 0.06
27081 C 79.13652451072475 79.32897578710637 100.88132309492951 C 0.0 **** -0.24
27082 H 79.02614881611208 79.21674701971583 99.80349585436346 H 0.0 **** 0.06
27083 H 78.28747075663138 78.86463385487008 101.38404775265695 H 0.0 **** 0.06
27084 H 79.1732922136658 80.38888669882576 101.13361408301682 H 0.0 **** 0.06
27085 H 80.0589261400751 78.84649273715274 101.20522909046383 H 0.0 **** 0.06
27086 C 43.080552482923224 42.97189874569079 56.08439605454282 C 0.0 **** -0.24
27087 H 42.81072702010039 41.95262459558258 56.361993231523826 H 0.0 **** 0.06
27088 H 44.047837620439964 43.222903114690524 56.519683318405704 H 0.0 **** 0.06
27089 H 42.32440561045695 43.662880781748164 56.45704933038392 H 0.0 **** 0.06
27090 H 43.1388788712548 43.04809656076698 54.998032523258466 H 0.0 **** 0.06
27091 C 87.51532330580142 41.918007358375064 67.25126808403104 C 0.0 **** -0.24
27092 H 86.80450339087406 41.170565184000736 66.90169709358918 H 0.0 **** 0.06
27093 H 86.99698015396729 42.862674009898456 67.41721100142325 H 0.0 **** 0.06
27094 H 88.2945523298232 42.057377597046866 66.502044626577 H 0.0 **** 0.06
27095 H 87.96604105256264 41.581692613473706 68.18526308506142 H 0.0 **** 0.06
27096 C 31.33220111493847 38.47094860417599 46.02752360784809 C 0.0 **** -0.24
27097 H 31.8191943420062 38.63217882422185 46.98986720711503 H 0.0 **** 0.06
27098 H 31.382510029274357 39.38615631830305 45.43747225865159 H 0.0 **** 0.06
27099 H 30.289110030900957 38.19941660337241 46.190007755086285 H 0.0 **** 0.06
27100 H 31.83851350778096 37.6662021141679 45.49491535008309 H 0.0 **** 0.06
27101 C 65.36417553703019 33.397549973421405 23.96995252971203 C 0.0 **** -0.24
27102 H 65.4055015079333 34.3247655536188 24.54139732834085 H 0.0 **** 0.06
27103 H 65.84584713336534 32.59973779182562 24.53520815693244 H 0.0 **** 0.06
27104 H 65.88075383682269 33.53363111986812 23.019471310592394 H 0.0 **** 0.06
27105 H 64.32319777198441 33.13356517913249 23.782397010414513 H 0.0 **** 0.06
27106 C 35.21012393583045 21.02295633075039 95.4821539854544 C 0.0 **** -0.24
27107 H 34.43804622018328 21.491779803735085 94.87135587824838 H 0.0 **** 0.06
27108 H 35.66999531005055 21.77386096920884 96.12543722610425 H 0.0 **** 0.06
27109 H 35.9694158835525 20.584615832373856 94.8338615205994 H 0.0 **** 0.06
27110 H 34.76229312425586 20.241432736218712 96.09676704776388 H 0.0 **** 0.06
27111 C 29.522832456362096 33.09291366939962 57.03690448009468 C 0.0 **** -0.24
27112 H 28.740024395756393 33.84344481529132 57.14073226490842 H 0.0 **** 0.06
27113 H 29.184640984467308 32.3060737140066 56.362893999062976 H 0.0 **** 0.06
27114 H 29.746608796155897 32.66387409745798 58.01396075370036 H 0.0 **** 0.06
27115 H 30.421238687765424 33.55850823291644 56.63076569137269 H 0.0 **** 0.06
27116 C 46.23434626125507 33.61113292469136 51.494598142413736 C 0.0 **** -0.24
27117 H 45.49636940606658 32.97723359371844 51.002083597709714 H 0.0 **** 0.06
27118 H 46.045448222136585 34.653936139231405 51.23883313273154 H 0.0 **** 0.06
27119 H 47.23348746612537 33.3298303550836 51.161897903597946 H 0.0 **** 0.06
27120 H 46.16153525908754 33.48272724551407 52.5745501184104 H 0.0 **** 0.06
27121 C 17.20420691169437 10.378650254351868 109.5628213231443 C 0.0 **** -0.24
27122 H 16.45419715531463 11.032452742525265 109.11712812224259 H 0.0 **** 0.06
27123 H 17.424395965878745 10.716454137648242 110.5765388158309 H 0.0 **** 0.06
27124 H 18.113804634287135 10.40803870967656 108.96401253210004 H 0.0 **** 0.06
27125 H 16.822937867175966 9.357299006057474 109.59488918862029 H 0.0 **** 0.06
27126 C 76.47371024952275 30.118564592672726 61.09702600658686 C 0.0 **** -0.24
27127 H 75.66619321897667 29.80612776808212 61.759145488110434 H 0.0 **** 0.06
27128 H 76.28305476821635 29.74247891286109 60.09161474357897 H 0.0 **** 0.06
27129 H 77.41952515849141 29.716220588731943 61.461926359390205 H 0.0 **** 0.06
27130 H 76.52647900203112 31.206630434549538 61.07442361645758 H 0.0 **** 0.06
27131 C 92.09558051717005 8.56967511054938 102.77329308750362 C 0.0 **** -0.24
27132 H 92.4307360827371 9.147802412539216 101.91163169953722 H 0.0 **** 0.06
27133 H 92.89910640878497 7.9109030950200285 103.10272640058858 H 0.0 **** 0.06
27134 H 91.2269614687757 7.973704801686292 102.49509528057652 H 0.0 **** 0.06
27135 H 91.82685761263741 9.248687671520456 103.58304225712712 H 0.0 **** 0.06
27136 C 23.57340499113053 51.31196749944888 80.59155021079647 C 0.0 **** -0.24
27137 H 23.48974649251167 51.94570726619361 81.47404715776673 H 0.0 **** 0.06
27138 H 23.010643535818986 50.39169867417593 80.75076581233904 H 0.0 **** 0.06
27139 H 24.621398329630154 51.071335089855495 80.41470082323062 H 0.0 **** 0.06
27140 H 23.17112048484927 51.83981685065697 79.7265415402361 H 0.0 **** 0.06
27141 C 33.315583155534284 103.79370581997826 51.59864906866871 C 0.0 **** -0.24
27142 H 32.89196364639971 104.63205793532845 52.15093335587203 H 0.0 **** 0.06
27143 H 32.52510575697794 103.28845482616931 51.04336025523415 H 0.0 **** 0.06
27144 H 33.77416508787146 103.09300781049271 52.29747216456249 H 0.0 **** 0.06
27145 H 34.07147432606271 104.16133816111827 50.904193334585585 H 0.0 **** 0.06
27146 C 51.09901229867679 104.5085311970955 103.04877238419184 C 0.0 **** -0.24
27147 H 51.451027627493666 105.48576943220087 102.71671903679734 H 0.0 **** 0.06
27148 H 50.839213815523664 104.55673861373286 104.1061987495902 H 0.0 **** 0.06
27149 H 51.88677499060784 103.77001136787844 102.90076183021189 H 0.0 **** 0.06
27150 H 50.21983371300755 104.22428567390027 102.47032598105076 H 0.0 **** 0.06
27151 C 8.915303791100953 3.375572197656579 46.06814246034537 C 0.0 **** -0.24
27152 H 9.087711030475859 3.1124617165447184 45.02397178095342 H 0.0 **** 0.06
27153 H 8.471708868478439 4.369994536151276 46.12329242711587 H 0.0 **** 0.06
27154 H 9.863903047210558 3.3688686340565823 46.60520507899332 H 0.0 **** 0.06
27155 H 8.238052738932568 2.6489296759877483 46.51814184243676 H 0.0 **** 0.06
27156 C 12.738149563697192 70.0191041777589 3.482151365227878 C 0.0 **** -0.24
27157 H 12.795912133166155 71.08435543278021 3.2576786491923713 H 0.0 **** 0.06
27158 H 13.439406575164341 69.47530195938167 2.8486282640675995 H 0.0 **** 0.06
27159 H 11.725817194971071 69.66226380077711 3.2915683884630766 H 0.0 **** 0.06
27160 H 12.990757658916593 69.85401787337814 4.529600838835734 H 0.0 **** 0.06
27161 C 4.498943976618504 95.8730414745304 25.38205811312139 C 0.0 **** -0.24
27162 H 4.825194619388961 96.8898456230229 25.160744683388998 H 0.0 **** 0.06
27163 H 3.4162605821642344 95.85917692466666 25.509204471707847 H 0.0 **** 0.06
27164 H 4.9777385314250076 95.52990887296113 26.29908456569615 H 0.0 **** 0.06
27165 H 4.777121848897767 95.21528211826057 24.558480282636708 H 0.0 **** 0.06
27166 C 56.99998638048584 25.66152848529457 37.94898360994415 C 0.0 **** -0.24
27167 H 57.40484762311034 24.75034942282283 37.5091736549781 H 0.0 **** 0.06
27168 H 55.94688081817349 25.754956793847455 37.685672943994746 H 0.0 **** 0.06
27169 H 57.548604142984615 26.523364825325505 37.56829813120345 H 0.0 **** 0.06
27170 H 57.101135364360154 25.61642515317734 39.033593830963014 H 0.0 **** 0.06
27171 C 48.22800569721626 0.5581266705670487 39.26494404984237 C 0.0 **** -0.24
27172 H 48.2696786256518 -0.5100271285240581 39.476801392575396 H 0.0 **** 0.06
27173 H 49.07730119291307 1.0547246408543316 39.73384204765202 H 0.0 **** 0.06
27174 H 47.30039676097116 0.9710179091646722 39.66318680279505 H 0.0 **** 0.06
27175 H 48.26274835997527 0.7163638661126015 38.18704856825562 H 0.0 **** 0.06
27176 C 96.15413779792048 87.49906944680373 65.10850590938067 C 0.0 **** -0.24
27177 H 96.43102913282013 86.82239200013699 65.91636883613599 H 0.0 **** 0.06
27178 H 95.30082472184299 87.08768647128326 64.56708676060516 H 0.0 **** 0.06
27179 H 96.99659867379985 87.61465399501003 64.42573092748647 H 0.0 **** 0.06
27180 H 95.88676070818907 88.4706981289445 65.524135477239 H 0.0 **** 0.06
27181 C 74.14198812159202 52.700111461500796 70.44161431239701 C 0.0 **** -0.24
27182 H 73.25452497819 52.12187359861363 70.18641277774657 H 0.0 **** 0.06
27183 H 74.90500400169367 52.55049419866606 69.6771548843613 H 0.0 **** 0.06
27184 H 74.52541295173279 52.37085819391348 71.40787901051755 H 0.0 **** 0.06
27185 H 73.88389158509165 53.75756284104375 70.49468469928553 H 0.0 **** 0.06
27186 C 69.31996589067248 65.33375129236907 106.45061008377644 C 0.0 **** -0.24
27187 H 68.30430289999997 65.57412776467612 106.13760923159126 H 0.0 **** 0.06
27188 H 69.29916816581677 64.90763539309626 107.45344476896017 H 0.0 **** 0.06
27189 H 69.92310279680298 66.24209743938798 106.45420459630463 H 0.0 **** 0.06
27190 H 69.75310210778206 64.61332388300355 105.75764613619106 H 0.0 **** 0.06
27191 C 1.5038184017782328 74.8446557628448 87.24702439039646 C 0.0 **** -0.24
27192 H 0.9884880537553045 74.09012924119173 86.65328197378847 H 0.0 **** 0.06
27193 H 1.0888860255386703 75.82816993199172 87.02382763076969 H 0.0 **** 0.06
27194 H 2.5662357994126523 74.8357193419735 87.0049931743678 H 0.0 **** 0.06
27195 H 1.3709716871289288 74.62652353506347 88.30691062855573 H 0.0 **** 0.06
27196 C 29.888762686232667 102.8736022838751 90.58170736365503 C 0.0 **** -0.24
27197 H 29.10191103544753 103.62692374660048 90.63641624428544 H 0.0 **** 0.06
27198 H 29.580297176533406 102.07503884964379 89.90754776491829 H 0.0 **** 0.06
27199 H 30.066849132304583 102.46284798068294 91.57578325511042 H 0.0 **** 0.06
27200 H 30.804763154419703 103.33189166462796 90.20857504372941 H 0.0 **** 0.06
27201 C 39.74251292656933 42.2049383765096 21.774073011861788 C 0.0 **** -0.24
27202 H 39.077517112088145 42.1094236889673 22.63226776237522 H 0.0 **** 0.06
27203 H 39.633067606797965 43.19903053817602 21.34021215342844 H 0.0 **** 0.06
27204 H 39.48417976957934 41.453099510209356 21.029060275345813 H 0.0 **** 0.06
27205 H 40.7731876892033 42.05970445369177 22.096576248094365 H 0.0 **** 0.06
27206 C 16.95042635673539 35.66243097800368 58.4026770769172 C 0.0 **** -0.24
27207 H 16.998028888483873 35.12073165864717 59.34786574993285 H 0.0 **** 0.06
27208 H 17.859884016500303 35.47431201057024 57.83030320252294 H 0.0 **** 0.06
27209 H 16.859655282053268 36.730196723139564 58.60012230818501 H 0.0 **** 0.06
27210 H 16.086031496969213 35.323122081292794 57.833164427395616 H 0.0 **** 0.06
27211 C 13.029511807189465 93.81870426731115 40.97255492623872 C 0.0 **** -0.24
27212 H 13.173151089401557 93.13207954926338 41.80662205028828 H 0.0 **** 0.06
27213 H 12.135837545903769 93.5326898941016 40.417361397148504 H 0.0 **** 0.06
27214 H 13.89625673186012 93.7767499780254 40.313764557372444 H 0.0 **** 0.06
27215 H 12.911057732488402 94.83289661014976 41.35381238423072 H 0.0 **** 0.06
27216 C 13.588656539850035 31.628720261831177 75.3695538530585 C 0.0 **** -0.24
27217 H 13.60904411009031 30.547374941912068 75.23381373306168 H 0.0 **** 0.06
27218 H 13.02846730163182 31.870586495957014 76.27390753262328 H 0.0 **** 0.06
27219 H 13.106355783623655 32.0929841528049 74.50916221649577 H 0.0 **** 0.06
27220 H 14.60780315449091 32.002892181650125 75.4617505825021 H 0.0 **** 0.06
27221 C 35.16584217219736 39.221307322986604 74.10184994523507 C 0.0 **** -0.24
27222 H 34.85177373610463 39.044522853076785 75.13103605638068 H 0.0 **** 0.06
27223 H 35.924803607691956 38.490180377438776 73.82398191094262 H 0.0 **** 0.06
27224 H 35.57958375843867 40.22660265330211 74.01621711104576 H 0.0 **** 0.06
27225 H 34.306482466913224 39.12426023978668 73.4390562762668 H 0.0 **** 0.06
27226 C 100.98157856377618 41.675944025097465 75.66369824728955 C 0.0 **** -0.24
27227 H 101.69704140629628 42.42413443555435 76.00548441161857 H 0.0 **** 0.06
27228 H 100.42415244021576 42.06874909792293 74.81349649990051 H 0.0 **** 0.06
27229 H 100.29134359823895 41.43786102878762 76.4728094227284 H 0.0 **** 0.06
27230 H 101.51458573638578 40.774381855293825 75.36372545021385 H 0.0 **** 0.06
27231 C 27.685550516799374 7.731798428822287 20.609120774577747 C 0.0 **** -0.24
27232 H 26.77023528729788 8.10675640012306 21.066931080614722 H 0.0 **** 0.06
27233 H 28.40818108218508 7.489846657744522 21.389742474854927 H 0.0 **** 0.06
27234 H 28.10174385207216 8.493391969637884 19.951369297011382 H 0.0 **** 0.06
27235 H 27.46037124074185 6.83499150145505 20.030957806487038 H 0.0 **** 0.06
27236 C 50.67202390863565 101.16017105711849 48.63627498734775 C 0.0 **** -0.24
27237 H 50.30624213153351 102.01198636217319 48.064149966462 H 0.0 **** 0.06
27238 H 51.641378540234484 100.8495267708225 48.247356715289584 H 0.0 **** 0.06
27239 H 49.964651822799965 100.33470277213985 48.551189029505565 H 0.0 **** 0.06
27240 H 50.77410288125003 101.44277603881969 49.68418674634563 H 0.0 **** 0.06
27241 C 86.5492127299436 61.631289351197665 47.31230947325362 C 0.0 **** -0.24
27242 H 86.69916775208893 62.71016094510449 47.298194448049884 H 0.0 **** 0.06
27243 H 86.06824434483075 61.342315718651264 48.247263176841294 H 0.0 **** 0.06
27244 H 87.51332764057021 61.12905553174829 47.229772300212964 H 0.0 **** 0.06
27245 H 85.91611644984737 61.34130161526963 46.473232606857636 H 0.0 **** 0.06
27246 C 46.823756855586616 108.91413982679123 47.041996102072055 C 0.0 **** -0.24
27247 H 47.15260334770886 109.85390186137562 46.59995315848232 H 0.0 **** 0.06
27248 H 45.74601563001135 108.9447519244288 47.20096611014568 H 0.0 **** 0.06
27249 H 47.32869823011386 108.76618764488975 47.99727258436332 H 0.0 **** 0.06
27250 H 47.0701658223471 108.09110865688572 46.371057167442416 H 0.0 **** 0.06
27251 C 86.20509196296135 84.63426027207896 68.45177592460209 C 0.0 **** -0.24
27252 H 85.91809410833409 85.02135444735993 69.42973302396169 H 0.0 **** 0.06
27253 H 85.30919400330171 84.40931941798635 67.8722776610627 H 0.0 **** 0.06
27254 H 86.79284629900621 83.72526394154787 68.57988230713778 H 0.0 **** 0.06
27255 H 86.80055048710807 85.38029740011629 67.92671076892765 H 0.0 **** 0.06
27256 C 82.16350088892307 20.820838115527977 95.01801201369318 C 0.0 **** -0.24
27257 H 82.52983455744453 21.652421472857156 95.61989446852603 H 0.0 **** 0.06
27258 H 82.77593057001229 19.93864237627949 95.20650693068131 H 0.0 **** 0.06
27259 H 82.22232894681201 21.084647044567205 93.9618146524963 H 0.0 **** 0.06
27260 H 81.12805884526335 20.608910699953242 95.28216767356403 H 0.0 **** 0.06
27261 C 3.554503735943115 11.723616014063083 55.01023185844039 C 0.0 **** -0.24
27262 H 4.122003684945497 11.043870741673658 55.64682510973313 H 0.0 **** 0.06
27263 H 2.7124532594456383 11.188890991503584 54.56909134614722 H 0.0 **** 0.06
27264 H 4.200186841665115 12.102946480979554 54.21833385648961 H 0.0 **** 0.06
27265 H 3.1836347975007016 12.55635551518759 55.607088492835175 H 0.0 **** 0.06
27266 C 37.227869050782715 17.430919385214168 5.7015741333993475 C 0.0 **** -0.24
27267 H 38.18188652506302 17.926378383722806 5.8783245488662015 H 0.0 **** 0.06
27268 H 36.952141173446535 17.53639797403423 4.651997947556355 H 0.0 **** 0.06
27269 H 36.45970210408751 17.88568574582854 6.327200092746452 H 0.0 **** 0.06
27270 H 37.317791787260774 16.37277292667136 5.948953899082758 H 0.0 **** 0.06
27271 C 98.51426606744889 61.39180502971206 60.59505713023026 C 0.0 **** -0.24
27272 H 99.26642221210801 60.99406825535135 59.913379530436316 H 0.0 **** 0.06
27273 H 97.51965021832164 61.19979788425202 60.19125599742824 H 0.0 **** 0.06
27274 H 98.65948100842112 62.46557189884551 60.71009635372161 H 0.0 **** 0.06
27275 H 98.61185959893422 60.90569864463856 61.566230061251076 H 0.0 **** 0.06
27276 C 104.66270128625537 50.296802069585794 25.136702641485954 C 0.0 **** -0.24
27277 H 104.7312911558807 50.0100534086811 24.087059656438555 H 0.0 **** 0.06
27278 H 103.62160149010582 50.2604958137168 25.455816647199356 H 0.0 **** 0.06
27279 H 105.04706492324357 51.30957362735319 25.262441083906566 H 0.0 **** 0.06
27280 H 105.25221885481824 49.60703398526138 25.74003813595192 H 0.0 **** 0.06
27281 C 26.01409105539428 5.435216686835048 52.00862704919348 C 0.0 **** -0.24
27282 H 26.139121944617138 4.354365242479915 52.07742522548057 H 0.0 **** 0.06
27283 H 26.214132497468174 5.759128384445759 50.98693120387452 H 0.0 **** 0.06
27284 H 26.709843510522667 5.9258569091421265 52.68872806133788 H 0.0 **** 0.06
27285 H 24.992004080962264 5.700274706285057 52.28049325032589 H 0.0 **** 0.06
27286 C 60.525779619058525 79.36645711890655 104.81286381141085 C 0.0 **** -0.24
27287 H 61.207211450377045 78.62847802443699 105.23428778991602 H 0.0 **** 0.06
27288 H 61.08759852208378 80.06800493694489 104.19560296938077 H 0.0 **** 0.06
27289 H 60.03095711750744 79.90681035016821 105.61907392298787 H 0.0 **** 0.06
27290 H 59.77749677697045 78.861845826439 104.201264278025 H 0.0 **** 0.06
27291 C 92.88335680485034 92.0693277438733 42.83484816066847 C 0.0 **** -0.24
27292 H 92.14529595067893 91.30307101814569 42.59987052964263 H 0.0 **** 0.06
27293 H 92.57138053574616 93.0200886156581 42.40157070990105 H 0.0 **** 0.06
27294 H 93.8499877014915 91.78037478168017 42.4213899850436 H 0.0 **** 0.06
27295 H 92.96750152732287 92.17283528279562 43.91731555445295 H 0.0 **** 0.06
27296 C 70.80552342784823 101.1213184688338 6.3472041730673965 C 0.0 **** -0.24
27297 H 71.12583120096198 101.32963510093373 7.368497906464739 H 0.0 **** 0.06
27298 H 71.57730168669694 100.54669054124861 5.835103797215012 H 0.0 **** 0.06
27299 H 70.64141611224856 102.06114897450664 5.819381118517526 H 0.0 **** 0.06
27300 H 69.87838059488577 100.54873238472533 6.368559861113511 H 0.0 **** 0.06
27301 C 99.06985360249848 32.71234177494585 4.767972895335902 C 0.0 **** -0.24
27302 H 98.76436849590368 31.760579379726458 5.2025438568237234 H 0.0 **** 0.06
27303 H 98.49634715815273 32.8964429595107 3.8581767829820706 H 0.0 **** 0.06
27304 H 100.1325085950229 32.677815110772876 4.527253096100367 H 0.0 **** 0.06
27305 H 98.88398736989876 33.51429205580412 5.482873066748084 H 0.0 **** 0.06
27306 C 83.1450834206757 55.73052260766147 101.56196617593993 C 0.0 **** -0.24
27307 H 83.7649096449871 56.51975669786111 101.137751984144 H 0.0 **** 0.06
27308 H 82.78889549722777 56.03706646841209 102.54534949149401 H 0.0 **** 0.06
27309 H 83.73270377082378 54.817801374564 101.65657572418891 H 0.0 **** 0.06
27310 H 82.29189894367408 55.547659232565024 100.90706765384344 H 0.0 **** 0.06
27311 C 109.32756585702279 77.51047343806665 110.26347272641816 C 0.0 **** -0.24
27312 H 109.8122484526495 78.2742060355309 109.65538389530232 H 0.0 **** 0.06
27313 H 108.83045209366624 77.98280203469821 111.11069308125667 H 0.0 **** 0.06
27314 H 110.07629468895578 76.80720328968111 110.62658966746143 H 0.0 **** 0.06
27315 H 108.59133195588171 76.97938552285612 109.66017760894911 H 0.0 **** 0.06
27316 C 97.03337661747406 87.87259058174432 110.69059824553364 C 0.0 **** -0.24
27317 H 97.45639615799985 88.55397828588576 109.95309777200458 H 0.0 **** 0.06
27318 H 96.0698329519397 87.50743064305816 110.3364365457021 H 0.0 **** 0.06
27319 H 96.89890526349194 88.3977819659526 111.63536759093512 H 0.0 **** 0.06
27320 H 97.710423506692 87.02976311688761 110.8361461695502 H 0.0 **** 0.06
27321 C 4.23774558379246 86.21581253222763 66.94804412581897 C 0.0 **** -0.24
27322 H 4.574915347667822 85.18961585578606 66.80369164699 H 0.0 **** 0.06
27323 H 3.193028222703738 86.21488046498854 67.25849457920151 H 0.0 **** 0.06
27324 H 4.339646197157679 86.7663969747579 66.01240220116503 H 0.0 **** 0.06
27325 H 4.845454800852252 86.69149947488918 67.71769935031013 H 0.0 **** 0.06
27326 C 27.079318498794407 10.468098731739815 81.80624479141699 C 0.0 **** -0.24
27327 H 27.550006304730175 11.0737823681892 81.03172231735448 H 0.0 **** 0.06
27328 H 26.02986115927615 10.308804936708611 81.55560843303175 H 0.0 **** 0.06
27329 H 27.149767973773237 10.985163211417898 82.76421453194132 H 0.0 **** 0.06
27330 H 27.587508559530647 9.50632629121094 81.87382698529191 H 0.0 **** 0.06
27331 C 72.35547834106961 100.07957515265814 65.62366030028561 C 0.0 **** -0.24
27332 H 72.41732991624644 101.01900573605191 66.174090454863 H 0.0 **** 0.06
27333 H 73.30745044988697 99.88512589117533 65.12874680715025 H 0.0 **** 0.06
27334 H 71.56443471085072 100.14728999356763 64.87692246164036 H 0.0 **** 0.06
27335 H 72.13290843228287 99.26813238726594 66.31697554903343 H 0.0 **** 0.06
27336 C 20.74765594993451 60.62106707623724 67.0767771585331 C 0.0 **** -0.24
27337 H 20.54295104984388 61.494730228727065 67.69558111133841 H 0.0 **** 0.06
27338 H 20.497862953315746 60.84480366852932 66.03986534710623 H 0.0 **** 0.06
27339 H 20.14468172333514 59.781600753540886 67.42324089079167 H 0.0 **** 0.06
27340 H 21.804591447072937 60.36343934476915 67.15032359578282 H 0.0 **** 0.06
27341 C 89.09711511480225 77.77585430769344 84.60541086262867 C 0.0 **** -0.24
27342 H 89.51996842039716 77.23656425138518 85.45321276413283 H 0.0 **** 0.06
27343 H 88.9822738072254 78.82843721762497 84.86537327068973 H 0.0 **** 0.06
27344 H 88.12371564810292 77.35444281260769 84.35535979274452 H 0.0 **** 0.06
27345 H 89.76324387978423 77.68331296303323 83.74781988655657 H 0.0 **** 0.06
27346 C 12.526007298301508 75.61388899104048 81.97461893530306 C 0.0 **** -0.24
27347 H 12.689173168865569 75.94849203937173 82.9999659603778 H 0.0 **** 0.06
27348 H 11.50184936709815 75.2548165857043 81.86824072294266 H 0.0 **** 0.06
27349 H 13.220006582042462 74.8060695923514 81.74220002202773 H 0.0 **** 0.06
27350 H 12.693771159314792 76.44555563620631 81.29123431007503 H 0.0 **** 0.06
27351 C 51.953880045769694 74.63052073982138 37.68311521988488 C 0.0 **** -0.24
27352 H 51.04707475207232 74.02862525458902 37.63296878439235 H 0.0 **** 0.06
27353 H 51.73435077906802 75.64646108486424 37.35394523761039 H 0.0 **** 0.06
27354 H 52.71525525909621 74.19420663153085 37.03563736318807 H 0.0 **** 0.06
27355 H 52.31893863341281 74.65179522344847 38.70988410785026 H 0.0 **** 0.06
27356 C 104.88900703285753 106.39979099714776 47.716019301674756 C 0.0 **** -0.24
27357 H 104.59954720857934 107.27909400755402 47.14007400347087 H 0.0 **** 0.06
27358 H 104.51321267027151 106.49388043166597 48.73522612321056 H 0.0 **** 0.06
27359 H 105.97541893575794 106.31876232362879 47.73457240785808 H 0.0 **** 0.06
27360 H 104.46611944581309 105.5075955745222 47.25279774061485 H 0.0 **** 0.06
27361 C 94.44949715202603 92.31736778288378 14.78195025310156 C 0.0 **** -0.24
27362 H 95.49307387479317 92.07712400171502 14.986953462702104 H 0.0 **** 0.06
27363 H 94.38146115262757 92.86616071273278 13.843003971070129 H 0.0 **** 0.06
27364 H 94.0529423899159 92.93004487630616 15.591651332993784 H 0.0 **** 0.06
27365 H 93.8731928292151 91.39572845632931 14.7074723350784 H 0.0 **** 0.06
27366 C 75.25126739074994 45.99545654824689 30.954511264759503 C 0.0 **** -0.24
27367 H 74.64798201179548 46.604622768259276 31.627403518803817 H 0.0 **** 0.06
27368 H 75.10410552627661 44.940723317192194 31.187199762098373 H 0.0 **** 0.06
27369 H 76.30401592289269 46.25191668780718 31.07879129843454 H 0.0 **** 0.06
27370 H 74.94961977869258 46.18580267097887 29.924457960297815 H 0.0 **** 0.06
27371 C 36.454904434181714 57.98182094375258 76.3867893531752 C 0.0 **** -0.24
27372 H 36.925980234788014 57.044649938052544 76.08958429000687 H 0.0 **** 0.06
27373 H 35.46033994387905 57.77753243353584 76.78559444752196 H 0.0 **** 0.06
27374 H 36.3701894876737 58.63679975793832 75.51905038609435 H 0.0 **** 0.06
27375 H 37.06102722198291 58.467472639703885 77.15120108858021 H 0.0 **** 0.06
27376 C 14.404966171631756 75.26936044894398 5.072570331677278 C 0.0 **** -0.24
27377 H 14.401524383931179 76.35402645199605 5.185480056394939 H 0.0 **** 0.06
27378 H 14.64796576984574 75.01293491098608 4.041361877910488 H 0.0 **** 0.06
27379 H 13.42094930397614 74.8756490963284 5.323679508828395 H 0.0 **** 0.06
27380 H 15.150540959637432 74.8379509959627 5.740771551797247 H 0.0 **** 0.06
27381 C 57.062055441135044 61.41897998075146 93.27602946323191 C 0.0 **** -0.24
27382 H 56.213157468483246 61.98174049548396 92.88759469108848 H 0.0 **** 0.06
27383 H 57.810108557629746 61.301517333899255 92.49206212500303 H 0.0 **** 0.06
27384 H 56.724591097500365 60.436599727709165 93.60725841019917 H 0.0 **** 0.06
27385 H 57.49777578474925 61.95575087126409 94.11868628673017 H 0.0 **** 0.06
27386 C 101.07178580430343 15.858148437010115 1.6849334703561567 C 0.0 **** -0.24
27387 H 100.87665694792827 15.711668025750658 2.7474973385551493 H 0.0 **** 0.06
27388 H 100.86955892480613 14.932634314430132 1.1467136433850555 H 0.0 **** 0.06
27389 H 102.11485129221542 16.141407037025132 1.5440658611340154 H 0.0 **** 0.06
27390 H 100.42562851561217 16.64937292360661 1.3040275382338677 H 0.0 **** 0.06
27391 C 106.08777313791154 48.362633307086796 106.12911654532547 C 0.0 **** -0.24
27392 H 106.21637288337683 49.074422204705805 106.9439958968795 H 0.0 **** 0.06
27393 H 107.00740956885033 48.308429580888834 105.545417490458 H 0.0 **** 0.06
27394 H 105.26846502466356 48.689210503644894 105.48763127786825 H 0.0 **** 0.06
27395 H 105.85884507475544 47.378470939107665 106.53942151609606 H 0.0 **** 0.06
27396 C 87.60525519073815 56.85199760370932 103.96042623876116 C 0.0 **** -0.24
27397 H 87.65014771092648 55.8051572374433 103.65857248877245 H 0.0 **** 0.06
27398 H 86.62616388437584 57.064767564655455 104.39092240062422 H 0.0 **** 0.06
27399 H 87.76511821680647 57.487643924789694 103.08945247109412 H 0.0 **** 0.06
27400 H 88.37960549355662 57.04983299396815 104.70147177634709 H 0.0 **** 0.06
27401 C 23.844230570561308 28.880746802007295 35.09156887417811 C 0.0 **** -0.24
27402 H 24.04671202357443 28.04147352462826 35.75756842420691 H 0.0 **** 0.06
27403 H 24.42138890970864 28.76307128063582 34.17413032982208 H 0.0 **** 0.06
27404 H 24.128749537889234 29.81087959876271 35.584088618080756 H 0.0 **** 0.06
27405 H 22.781024622936002 28.90587110555814 34.85298428339223 H 0.0 **** 0.06
27406 C 88.50864533449823 68.28523066756998 17.719114112402355 C 0.0 **** -0.24
27407 H 88.78048403809996 67.23000428767403 17.710705404680812 H 0.0 **** 0.06
27408 H 87.43681439209757 68.38565712835538 17.545022916212673 H 0.0 **** 0.06
27409 H 89.05421767844382 68.80743357619502 16.93246633564087 H 0.0 **** 0.06
27410 H 88.7620757829531 68.71882931265549 18.686257291736226 H 0.0 **** 0.06
27411 C 36.60099058739904 42.4040725484096 53.86872496282464 C 0.0 **** -0.24
27412 H 37.61378334234013 42.76951400350167 53.695127217725314 H 0.0 **** 0.06
27413 H 36.32904898563774 42.572304638725655 54.91113682947321 H 0.0 **** 0.06
27414 H 36.55854788591225 41.337446869387065 53.64839337982349 H 0.0 **** 0.06
27415 H 35.90713922539996 42.93740486200254 53.21994333811486 H 0.0 **** 0.06
27416 C 78.44197284235901 16.97113413819382 30.305488112538768 C 0.0 **** -0.24
27417 H 77.4648676403429 17.260705866860377 30.694556825442135 H 0.0 **** 0.06
27418 H 79.12864159359805 17.814237498863903 30.387247071058027 H 0.0 **** 0.06
27419 H 78.34448529470205 16.681882368097263 29.258836618084047 H 0.0 **** 0.06
27420 H 78.8271152285302 16.13017287207188 30.8808629015559 H 0.0 **** 0.06
27421 C 34.06990109300284 102.08524384119026 8.793982337381399 C 0.0 **** -0.24
27422 H 33.35711346199005 101.34581292186745 9.158844547916813 H 0.0 **** 0.06
27423 H 33.86500259614752 102.3027048231428 7.745932702157763 H 0.0 **** 0.06
27424 H 35.0822984104891 101.69359870365288 8.892868585606228 H 0.0 **** 0.06
27425 H 33.97564142695009 102.99972689060209 9.380294234640202 H 0.0 **** 0.06
27426 C 41.1637525004802 14.517768936796699 105.8369825416504 C 0.0 **** -0.24
27427 H 41.62647000380423 13.565843817393528 106.09723781226617 H 0.0 **** 0.06
27428 H 40.09101393872959 14.46297864289869 106.02183850051551 H 0.0 **** 0.06
27429 H 41.341869904483076 14.732481346781384 104.78324087121538 H 0.0 **** 0.06
27430 H 41.598014062027175 15.310431834215876 106.44734655298629 H 0.0 **** 0.06
27431 C 82.66487029591468 2.667250555484884 8.0151298181367 C 0.0 **** -0.24
27432 H 81.63436717579751 2.4040112502836735 7.7793352985476645 H 0.0 **** 0.06
27433 H 83.00525522363459 2.0775837226863416 8.865580754624062 H 0.0 **** 0.06
27434 H 82.72087422289613 3.727999308484584 8.262047688688199 H 0.0 **** 0.06
27435 H 83.29817620169271 2.461328173088532 7.152743426733679 H 0.0 **** 0.06
27436 C 17.015089113132916 8.480042248467754 48.7805205228385 C 0.0 **** -0.24
27437 H 18.059535288790556 8.172232141742583 48.7279289824095 H 0.0 **** 0.06
27438 H 16.55524613223217 8.373941464440762 47.798776304874586 H 0.0 **** 0.06
27439 H 16.959371158749462 9.52088765607445 49.09820911717457 H 0.0 **** 0.06
27440 H 16.48807002076454 7.8523188836726945 49.49914141756849 H 0.0 **** 0.06
27441 C 99.30005558076633 81.96123663542028 70.34112323467737 C 0.0 **** -0.24
27442 H 99.6305897522321 81.2405146215936 71.0893896958132 H 0.0 **** 0.06
27443 H 98.24942063197896 82.20101329869976 70.5075147419138 H 0.0 **** 0.06
27444 H 99.4217684646816 81.53299274584532 69.3457946878683 H 0.0 **** 0.06
27445 H 99.89795205640047 82.86912572363929 70.42205499151464 H 0.0 **** 0.06
27446 C 70.39137693748967 78.66851803321396 59.506549558278635 C 0.0 **** -0.24
27447 H 70.36712424564081 78.46497321888177 60.57711718755297 H 0.0 **** 0.06
27448 H 69.63127409214337 79.41057441053817 59.26053173231287 H 0.0 **** 0.06
27449 H 70.19411178578429 77.74814151142192 58.9572297674862 H 0.0 **** 0.06
27450 H 71.3745567715637 79.05162362360372 59.232744397070405 H 0.0 **** 0.06
27451 C 59.114981263204186 89.84952178942574 99.08392756404865 C 0.0 **** -0.24
27452 H 60.11712743063151 90.09724437390697 98.73442463471265 H 0.0 **** 0.06
27453 H 59.18325411269035 89.14219222030393 99.9104778852213 H 0.0 **** 0.06
27454 H 58.54552738488235 89.40391935222443 98.26832381374803 H 0.0 **** 0.06
27455 H 58.614997721166674 90.75756559377771 99.42254046001574 H 0.0 **** 0.06
27456 C 90.69629545181765 4.386336829032075 87.78794842371067 C 0.0 **** -0.24
27457 H 90.51514880514698 5.368085436639888 88.22480568275992 H 0.0 **** 0.06
27458 H 91.12545537976852 4.505229797488141 86.79207842766039 H 0.0 **** 0.06
27459 H 89.75565298275852 3.8410508135174837 87.71533572481499 H 0.0 **** 0.06
27460 H 91.3907514675613 3.8301338830112286 88.4181792488684 H 0.0 **** 0.06
27461 C 42.268309509822224 73.55755845997686 15.157058901355697 C 0.0 **** -0.24
27462 H 42.35471361612037 74.22741281003198 14.302056464796777 H 0.0 **** 0.06
27463 H 41.35288037585166 73.78328793634495 15.703907537813052 H 0.0 **** 0.06
27464 H 43.12736873409576 73.69500794504091 15.814424602766977 H 0.0 **** 0.06
27465 H 42.23980962207557 72.52522981472475 14.808233642865218 H 0.0 **** 0.06
27466 C 103.03839946871784 93.96156977988886 49.95597818851518 C 0.0 **** -0.24
27467 H 102.13574182040219 93.85379632923306 49.35517893085019 H 0.0 **** 0.06
27468 H 103.62837964613095 93.04637793366317 49.893120554753466 H 0.0 **** 0.06
27469 H 102.76362690991772 94.14603007368491 50.994945087280556 H 0.0 **** 0.06
27470 H 103.62668399612701 94.80001564050461 49.58121605527099 H 0.0 **** 0.06
27471 C 54.52665912843804 83.33285597353233 55.43018849530855 C 0.0 **** -0.24
27472 H 55.48566975692046 83.79310556538192 55.194293152098695 H 0.0 **** 0.06
27473 H 54.43320530721394 82.39030636317703 54.88969297660781 H 0.0 **** 0.06
27474 H 53.71914398151068 84.00363737085415 55.13494386565675 H 0.0 **** 0.06
27475 H 54.46724372165414 83.14423984587995 56.50213182447259 H 0.0 **** 0.06
27476 C 82.92880471740183 93.97005348177811 52.08742757521479 C 0.0 **** -0.24
27477 H 83.48858877301713 93.04502203917721 51.9518571551901 H 0.0 **** 0.06
27478 H 82.59833990640485 94.34012884130811 51.116726290113924 H 0.0 **** 0.06
27479 H 83.56657677008369 94.71412535005237 52.562860547876234 H 0.0 **** 0.06
27480 H 82.05960399259304 93.7790704948637 52.71851983395845 H 0.0 **** 0.06
27481 C 49.76886778844381 6.457319910878539 59.248977806773055 C 0.0 **** -0.24
27482 H 49.79530124716415 7.019154756184411 58.31464560003558 H 0.0 **** 0.06
27483 H 49.21220279606806 5.530834640625773 59.09980346990777 H 0.0 **** 0.06
27484 H 49.28064445655472 7.054944631475863 60.01813341768806 H 0.0 **** 0.06
27485 H 50.7868236847812 6.223398315071687 59.56112557042344 H 0.0 **** 0.06
27486 C 64.91753581536989 69.80854880177105 53.92767594656249 C 0.0 **** -0.24
27487 H 65.9544740208832 69.80166804954446 53.592491636723935 H 0.0 **** 0.06
27488 H 64.39121519465303 70.64338026125928 53.46317529914555 H 0.0 **** 0.06
27489 H 64.8867115341354 69.91841301116108 55.012112434897546 H 0.0 **** 0.06
27490 H 64.4373808467945 68.87287173643128 53.643471262422366 H 0.0 **** 0.06
27491 C 107.90969524560875 0.06466425951316523 91.64466612129263 C 0.0 **** -0.24
27492 H 107.75323988948846 1.0066338321994834 92.16992487305437 H 0.0 **** 0.06
27493 H 108.37057504972991 -0.6560229826808666 92.32176991380749 H 0.0 **** 0.06
27494 H 108.56500494022383 0.229819136014612 90.7891371448376 H 0.0 **** 0.06
27495 H 106.95159080711485 -0.3227607858908925 91.29900237873017 H 0.0 **** 0.06
27496 C 93.95850749761308 98.95674772696032 17.363014897045957 C 0.0 **** -0.24
27497 H 93.8684346659645 99.78089247904214 16.65426873505386 H 0.0 **** 0.06
27498 H 94.51450729321809 98.13960330799716 16.901010493872377 H 0.0 **** 0.06
27499 H 92.96472539874976 98.6084313415358 17.642239728737366 H 0.0 **** 0.06
27500 H 94.4875260098484 99.30001152741164 18.252121253864004 H 0.0 **** 0.06
27501 C 59.96962269603844 109.32619782548531 58.71161787326673 C 0.0 **** -0.24
27502 H 60.83482610281169 109.92123570097039 59.00564809895627 H 0.0 **** 0.06
27503 H 60.28089947016025 108.56285665319902 57.99702577768386 H 0.0 **** 0.06
27504 H 59.22344613980303 109.97365562949531 58.25160630270011 H 0.0 **** 0.06
27505 H 59.54230726175878 108.84710552319527 59.59193188878896 H 0.0 **** 0.06
27506 C 54.227549489471755 40.040512015212016 21.5666211439451 C 0.0 **** -0.24
27507 H 54.72381780683256 39.56448615316822 20.721374535830478 H 0.0 **** 0.06
27508 H 54.855122890959194 40.843991153246066 21.952080126728617 H 0.0 **** 0.06
27509 H 54.05844865660751 39.302372099563854 22.350715597718334 H 0.0 **** 0.06
27510 H 53.27059563571862 40.450174171970446 21.24208299298826 H 0.0 **** 0.06
27511 C 57.515717430110556 55.73013978150874 14.80934444962 C 0.0 **** -0.24
27512 H 57.77378526867358 56.16722875451097 13.84508259763615 H 0.0 **** 0.06
27513 H 56.46702535228195 55.4305890848228 14.802778666790317 H 0.0 **** 0.06
27514 H 57.678282476143295 56.46642194849653 15.596974406039365 H 0.0 **** 0.06
27515 H 58.14232364159727 54.8580354388512 14.991570457142885 H 0.0 **** 0.06
27516 C 35.664614293016854 38.00736381216862 32.08307618930215 C 0.0 **** -0.24
27517 H 36.0872863625722 37.06356880359758 31.735718832245226 H 0.0 **** 0.06
27518 H 35.98512117871141 38.81376134061713 31.423185962122005 H 0.0 **** 0.06
27519 H 36.01126811059612 38.2075686094611 33.09722900548684 H 0.0 **** 0.06
27520 H 34.57696202976459 37.94151707162131 32.07626032962315 H 0.0 **** 0.06
27521 C 81.49971054986051 27.412368914606034 97.89410451261246 C 0.0 **** -0.24
27522 H 81.58503949215518 26.66803788286908 98.68578690914902 H 0.0 **** 0.06
27523 H 82.06720934634882 27.083983242530287 97.0235588906005 H 0.0 **** 0.06
27524 H 81.89502517096025 28.365488344719637 98.24793289570087 H 0.0 **** 0.06
27525 H 80.45189062125587 27.53260517688068 97.62125784102898 H 0.0 **** 0.06
27526 C 84.05358443739641 88.04885898565102 82.22590874897985 C 0.0 **** -0.24
27527 H 84.42214514868479 88.74780660752454 82.97723823321218 H 0.0 **** 0.06
27528 H 84.42663609703565 87.04892847586221 82.44655359260895 H 0.0 **** 0.06
27529 H 84.40175467299821 88.35751224247804 81.24048987480533 H 0.0 **** 0.06
27530 H 82.96417949613527 88.04214513228904 82.24157652461368 H 0.0 **** 0.06
27531 C 8.041032571543695 108.56828512270181 55.32997499275122 C 0.0 **** -0.24
27532 H 8.76665609213164 109.04294329243328 54.670396492282244 H 0.0 **** 0.06
27533 H 7.458387278463903 109.3348341083844 55.84061854070835 H 0.0 **** 0.06
27534 H 8.563487889423953 107.95746717276413 56.06542352686194 H 0.0 **** 0.06
27535 H 7.374116658447818 107.93788835054347 54.7417872605876 H 0.0 **** 0.06
27536 C 38.41447923580222 81.72245992905843 91.18914541551726 C 0.0 **** -0.24
27537 H 38.98025827026338 82.4479936172383 90.60432005308516 H 0.0 **** 0.06
27538 H 38.982045323596395 81.45326929771467 92.08007632436923 H 0.0 **** 0.06
27539 H 38.23707108208757 80.83131943182248 90.58787123150526 H 0.0 **** 0.06
27540 H 37.45996699178619 82.15905882684828 91.48346245874215 H 0.0 **** 0.06
27541 C 87.05021727399732 53.468551504320686 61.27671390874842 C 0.0 **** -0.24
27542 H 87.36663863664565 53.29285267773491 62.30528438177231 H 0.0 **** 0.06
27543 H 87.91441754686353 53.40991350001792 60.61574707364066 H 0.0 **** 0.06
27544 H 86.59971693677686 54.45841705578579 61.200239111400236 H 0.0 **** 0.06
27545 H 86.3199620421557 52.71281238205012 60.98873757443852 H 0.0 **** 0.06
27546 C 59.82773310005376 104.4305599309362 27.683622894278585 C 0.0 **** -0.24
27547 H 60.32874861067967 104.50645420397439 28.648223436152534 H 0.0 **** 0.06
27548 H 58.77296335836701 104.20112289915807 27.839019914534788 H 0.0 **** 0.06
27549 H 60.290021392968725 103.63669884472716 27.096234705373433 H 0.0 **** 0.06
27550 H 59.91936741402412 105.37625363177074 27.150796248133872 H 0.0 **** 0.06
27551 C 22.178847054144455 69.1745390176663 33.78301940203322 C 0.0 **** -0.24
27552 H 22.901213570913654 68.99762395281904 32.986217417723466 H 0.0 **** 0.06
27553 H 22.653940721157994 68.999420414914 34.74849609030545 H 0.0 **** 0.06
27554 H 21.334472477522695 68.49574854898454 33.66442433450934 H 0.0 **** 0.06
27555 H 21.827996466742036 70.20558253172837 33.73196157249886 H 0.0 **** 0.06
27556 C 3.1626501561405007 15.91121224075708 58.79321254394098 C 0.0 **** -0.24
27557 H 2.293256657917482 16.475378467133268 58.45503926658631 H 0.0 **** 0.06
27558 H 3.8812521653442076 15.829511828791425 57.97774401338054 H 0.0 **** 0.06
27559 H 2.848799871463612 14.91401743221023 59.10320333284942 H 0.0 **** 0.06
27560 H 3.6232937129995264 16.425395021955083 59.63601694126818 H 0.0 **** 0.06
27561 C 37.05874128965044 6.18232473878038 63.92772088204691 C 0.0 **** -0.24
27562 H 37.46517880914481 5.958538624214896 62.94037891966565 H 0.0 **** 0.06
27563 H 36.932369782705045 7.2594576574836935 64.03176219365037 H 0.0 **** 0.06
27564 H 37.74521712454374 5.8201655166879505 64.69346130225506 H 0.0 **** 0.06
27565 H 36.09344953266421 5.68931962639175 64.04179762126165 H 0.0 **** 0.06
27566 C 91.8638877796902 101.666410435133 59.76081053644597 C 0.0 **** -0.24
27567 H 92.221752804216 102.56841820660004 59.26287438310635 H 0.0 **** 0.06
27568 H 92.18597449715473 100.78980184410003 59.1972918247254 H 0.0 **** 0.06
27569 H 90.7750470559051 101.68727676589738 59.81097254927201 H 0.0 **** 0.06
27570 H 92.2744273075001 101.62154372633206 60.76958950667054 H 0.0 **** 0.06
27571 C 11.677202983313592 62.21296206931993 6.217299641794455 C 0.0 **** -0.24
27572 H 11.286880249218939 62.96326906609062 5.530533125266402 H 0.0 **** 0.06
27573 H 11.082898622898881 61.302049569367455 6.135914441493554 H 0.0 **** 0.06
27574 H 11.623610273102742 62.59211374127159 7.237980580531371 H 0.0 **** 0.06
27575 H 12.714516011861406 61.9947310686652 5.9650505561215255 H 0.0 **** 0.06
27576 C 69.6541727492145 94.5388594329375 37.60815022177542 C 0.0 **** -0.24
27577 H 69.60073280612238 93.62377353409602 38.19802538351988 H 0.0 **** 0.06
27578 H 70.69657648808874 94.84046105221088 37.50060631393377 H 0.0 **** 0.06
27579 H 69.09719768651127 95.32868197334602 38.11211933006747 H 0.0 **** 0.06
27580 H 69.22363745232923 94.36110314095174 36.62321990066275 H 0.0 **** 0.06
27581 C 90.52686298369905 64.52187502773393 55.71056028356185 C 0.0 **** -0.24
27582 H 91.28343782795096 65.23255619321787 56.041456733682 H 0.0 **** 0.06
27583 H 90.59382561574623 64.39691331112459 54.63008572207198 H 0.0 **** 0.06
27584 H 89.53780835155916 64.89652419028079 55.97286856773445 H 0.0 **** 0.06
27585 H 90.69346589704375 63.561520163986984 56.19873622454844 H 0.0 **** 0.06
27586 C 36.968522295860254 60.78579179561859 11.384176651788636 C 0.0 **** -0.24
27587 H 37.73714978411917 60.31209634559225 10.77442417746036 H 0.0 **** 0.06
27588 H 36.879358935080404 60.255632078846986 12.333080950848114 H 0.0 **** 0.06
27589 H 36.01417079592889 60.75154107528054 10.857904976977863 H 0.0 **** 0.06
27590 H 37.24293636180806 61.82417232200768 11.572600593425392 H 0.0 **** 0.06
27591 C 85.02059038287851 50.21896601604931 50.72509975745189 C 0.0 **** -0.24
27592 H 84.94459210230255 50.564862118572535 51.75526518441198 H 0.0 **** 0.06
27593 H 84.67034951246156 49.18862596657357 50.66095569257295 H 0.0 **** 0.06
27594 H 86.05969965243479 50.27151881148933 50.4007390906742 H 0.0 **** 0.06
27595 H 84.40741154168713 50.85218037527335 50.08304674563585 H 0.0 **** 0.06
27596 C 105.41361721832571 40.75858366967259 77.74390508157525 C 0.0 **** -0.24
27597 H 105.85940518720003 40.522074958429926 76.77684069007891 H 0.0 **** 0.06
27598 H 105.42214688295984 41.838635979050025 77.89278092969595 H 0.0 **** 0.06
27599 H 105.9894398205804 40.278582538218416 78.53533542468479 H 0.0 **** 0.06
27600 H 104.38705853675351 40.39490405917411 77.76862501888748 H 0.0 **** 0.06
27601 C 59.54841796297343 18.150431451160042 5.362861452812467 C 0.0 **** -0.24
27602 H 58.883498396215856 17.337159384609173 5.654277418234159 H 0.0 **** 0.06
27603 H 60.08981811542324 17.86909500464128 4.458987308696578 H 0.0 **** 0.06
27604 H 60.25911401264578 18.34350315245128 6.167613756263364 H 0.0 **** 0.06
27605 H 58.96239147106235 19.048746884858357 5.172084100018168 H 0.0 **** 0.06
27606 C 10.142741158681313 17.827337635725144 43.589570763423694 C 0.0 **** -0.24
27607 H 9.880683535608826 18.29367529433887 44.539768515630044 H 0.0 **** 0.06
27608 H 10.196855463477013 16.74579452348678 43.71920848521205 H 0.0 **** 0.06
27609 H 11.109328391967704 18.203464289305998 43.25472216808748 H 0.0 **** 0.06
27610 H 9.382059154732621 18.067056285024478 42.8469156843239 H 0.0 **** 0.06
27611 C 55.41154684916148 73.51506335270528 37.74162759673558 C 0.0 **** -0.24
27612 H 55.70580241220449 74.14660403018144 36.902666436976354 H 0.0 **** 0.06
27613 H 56.243057515550845 72.86517174759382 38.0148375172502 H 0.0 **** 0.06
27614 H 54.55339348463764 72.9076102496702 37.455152062359794 H 0.0 **** 0.06
27615 H 55.14491763176949 74.14215999781936 38.59231754347903 H 0.0 **** 0.06
27616 C 11.14615788023491 69.83568132940195 33.89197749982122 C 0.0 **** -0.24
27617 H 11.989332174901705 70.40990119152366 34.277481650228424 H 0.0 **** 0.06
27618 H 10.993555426718501 68.95259566486595 34.512761642722126 H 0.0 **** 0.06
27619 H 11.356027968200067 69.52919999175808 32.86730318124404 H 0.0 **** 0.06
27620 H 10.248244172606121 70.45316698266572 33.91017534847924 H 0.0 **** 0.06
27621 C 9.778015127353882 11.263445651758733 13.75964749990294 C 0.0 **** -0.24
27622 H 8.786189162467224 11.566741885552286 14.095591550329061 H 0.0 **** 0.06
27623 H 10.110137843460564 10.401586098329787 14.339210601344746 H 0.0 **** 0.06
27624 H 10.47675267688723 12.08735695772209 13.89975694919741 H 0.0 **** 0.06
27625 H 9.737613375882432 10.996794113204505 12.702834620547435 H 0.0 **** 0.06
27626 C 59.65967974179705 36.12101131242929 18.2067270311953 C 0.0 **** -0.24
27627 H 59.9005991811955 35.301764918817526 18.88272836672398 H 0.0 **** 0.06
27628 H 60.26262875467188 36.99269491592895 18.462030650509178 H 0.0 **** 0.06
27629 H 58.60315934439683 36.370749998834015 18.30008618108404 H 0.0 **** 0.06
27630 H 59.872508679809556 35.81980938973106 17.180325039797467 H 0.0 **** 0.06
27631 C 54.26885185810143 99.92240718797306 6.0075406826397 C 0.0 **** -0.24
27632 H 54.47406475591049 100.01478200267618 4.940779079341567 H 0.0 **** 0.06
27633 H 53.718562415598385 98.99905589052743 6.192402026697522 H 0.0 **** 0.06
27634 H 53.672404805999534 100.7738785501299 6.337737971735933 H 0.0 **** 0.06
27635 H 55.20970600927462 99.90196133415571 6.5579988477371955 H 0.0 **** 0.06
27636 C 74.1317883070364 108.01249908901735 105.77779966479787 C 0.0 **** -0.24
27637 H 73.09728823377182 108.33437719582028 105.66252276603024 H 0.0 **** 0.06
27638 H 74.62523780269595 108.01694442248721 104.80545630500771 H 0.0 **** 0.06
27639 H 74.1547378060184 107.00495845606667 106.19278630793599 H 0.0 **** 0.06
27640 H 74.6507730895579 108.69412140507426 106.45186683987802 H 0.0 **** 0.06
27641 C 24.99515524723195 38.31963312477531 85.2594033038141 C 0.0 **** -0.24
27642 H 24.01085185354166 38.48139654905758 85.69960915415268 H 0.0 **** 0.06
27643 H 25.392728230042632 39.2699359763975 84.90188269116356 H 0.0 **** 0.06
27644 H 24.908767865925494 37.62400155114135 84.42421787169121 H 0.0 **** 0.06
27645 H 25.66588505714832 37.90322095224175 86.01135821414387 H 0.0 **** 0.06
27646 C 105.55531913831676 102.99813288447831 53.48850718726845 C 0.0 **** -0.24
27647 H 105.31064442567497 101.94748307398396 53.64872596818219 H 0.0 **** 0.06
27648 H 106.40939366711035 103.27072601976231 54.108580909213174 H 0.0 **** 0.06
27649 H 104.69829261180926 103.61551817745169 53.75949374496645 H 0.0 **** 0.06
27650 H 105.8012761674833 103.1579077855682 52.438780153755204 H 0.0 **** 0.06
27651 C 70.84733647415369 17.15340402481675 33.83197844763416 C 0.0 **** -0.24
27652 H 70.6267423952492 17.08924083201032 34.89696108210313 H 0.0 **** 0.06
27653 H 70.51758906383012 16.240367199858454 33.33697733864204 H 0.0 **** 0.06
27654 H 71.92166868696779 17.275568624951006 33.690077438310766 H 0.0 **** 0.06
27655 H 70.32618819105684 18.00928686912431 33.40344753988364 H 0.0 **** 0.06
27656 C 8.177199168069308 97.27825400919328 76.7975943966102 C 0.0 **** -0.24
27657 H 7.479200232027267 96.50573150011563 77.12002761870006 H 0.0 **** 0.06
27658 H 9.153196791477939 97.09635909191726 77.24796827420933 H 0.0 **** 0.06
27659 H 7.808292831394056 98.25481279725325 77.11103143166004 H 0.0 **** 0.06
27660 H 8.267661909245163 97.25525427221788 75.71160579842055 H 0.0 **** 0.06
27661 C 82.56067902363498 108.64586984058135 66.90676196821084 C 0.0 **** -0.24
27662 H 83.2844463584517 109.04419449931092 66.19635645261496 H 0.0 **** 0.06
27663 H 81.68662925104582 109.29715596815777 66.9376352006733 H 0.0 **** 0.06
27664 H 83.01256236968322 108.59627502568785 67.89791209541386 H 0.0 **** 0.06
27665 H 82.25785945135021 107.64635995014137 66.5946353603087 H 0.0 **** 0.06
27666 C 12.90846612914767 104.26178677602282 21.552652758320562 C 0.0 **** -0.24
27667 H 12.396677315336177 104.95393870080846 22.221638316490242 H 0.0 **** 0.06
27668 H 12.225210985194138 103.46206383891696 21.266257263053234 H 0.0 **** 0.06
27669 H 13.773244343112452 103.83615599496986 22.06307795633137 H 0.0 **** 0.06
27670 H 13.237857223840123 104.79519865386828 20.66142384971357 H 0.0 **** 0.06
27671 C 70.66344463635045 50.926430076162234 69.51041365487647 C 0.0 **** -0.24
27672 H 70.7275547490724 52.00100946255321 69.34342354169341 H 0.0 **** 0.06
27673 H 71.6636451071376 50.49389683105616 69.47696567811435 H 0.0 **** 0.06
27674 H 70.04515108381327 50.47373065022981 68.73514979512314 H 0.0 **** 0.06
27675 H 70.21826237977905 50.7363346931877 70.48805026213611 H 0.0 **** 0.06
27676 C 27.601452008369364 49.06147355509946 52.36266928371276 C 0.0 **** -0.24
27677 H 27.40507093733794 48.23619721035467 53.047466469912564 H 0.0 **** 0.06
27678 H 28.480745120202727 49.61080381076951 52.69919213397972 H 0.0 **** 0.06
27679 H 26.74085948076697 49.729067591940506 52.34246123659173 H 0.0 **** 0.06
27680 H 27.779857010349104 48.66771828629619 51.36174310929897 H 0.0 **** 0.06
27681 C 2.436642830340574 96.3598882726223 30.57555420149683 C 0.0 **** -0.24
27682 H 2.5668835823681064 97.33312594163789 31.04813381055115 H 0.0 **** 0.06
27683 H 3.4096177255497366 95.96028469289422 30.29071822485912 H 0.0 **** 0.06
27684 H 1.813601789700769 96.46831097210264 29.687427441412638 H 0.0 **** 0.06
27685 H 1.9540798338509688 95.6779315510085 31.276472008460473 H 0.0 **** 0.06
27686 C 98.6430571202801 31.760227531215207 108.90488026509679 C 0.0 **** -0.24
27687 H 99.09300025167208 32.749524626972146 108.82580984209552 H 0.0 **** 0.06
27688 H 98.1264738471294 31.671806651236068 109.86201783970435 H 0.0 **** 0.06
27689 H 99.42277087110345 31.000410486624475 108.84169548927792 H 0.0 **** 0.06
27690 H 97.93012066356381 31.61916254671837 108.09299482239773 H 0.0 **** 0.06
27691 C 97.41389753784296 106.7675197941618 72.13689855578878 C 0.0 **** -0.24
27692 H 97.06155877197348 107.24920203247095 71.22564981459709 H 0.0 **** 0.06
27693 H 98.08638691358107 105.9488260261773 71.87815862226228 H 0.0 **** 0.06
27694 H 96.56238828764565 106.375619252088 72.69279843205109 H 0.0 **** 0.06
27695 H 97.9458313905487 107.49437646811161 72.75032047944754 H 0.0 **** 0.06
27696 C 86.54116915393293 88.43870881324409 77.18482837027209 C 0.0 **** -0.24
27697 H 85.68711632334049 88.84432511785513 77.72773530220971 H 0.0 **** 0.06
27698 H 86.21551590704362 87.59553666059392 76.57565481985709 H 0.0 **** 0.06
27699 H 87.29629547068085 88.10317901908881 77.89625283984785 H 0.0 **** 0.06
27700 H 86.96352152010748 89.21089184810526 76.54195625024555 H 0.0 **** 0.06
27701 C 30.398008846121037 81.17710781005009 58.96842104654877 C 0.0 **** -0.24
27702 H 30.714156093003496 82.20471637525941 59.147734419547135 H 0.0 **** 0.06
27703 H 29.925186409038673 80.78081280689291 59.866846852622416 H 0.0 **** 0.06
27704 H 31.26650094977235 80.56852861494615 58.715734321855166 H 0.0 **** 0.06
27705 H 29.685384046125975 81.15496234230567 58.143392411025616 H 0.0 **** 0.06
27706 C 64.27858387282757 72.82098276645182 27.633503086650563 C 0.0 **** -0.24
27707 H 63.37465994028412 73.42529042289715 27.560898101119108 H 0.0 **** 0.06
27708 H 64.01902986250992 71.81657530962788 27.970200550043216 H 0.0 **** 0.06
27709 H 64.96380533456912 73.27720511542137 28.348350257150727 H 0.0 **** 0.06
27710 H 64.7574456648153 72.76488570435261 26.6567159253578 H 0.0 **** 0.06
27711 C 4.294747553515236 99.16405148257394 72.07767665595411 C 0.0 **** -0.24
27712 H 4.200410196953044 100.24499557599188 72.17752665337879 H 0.0 **** 0.06
27713 H 3.8473400935366158 98.84626622478572 71.1361742392875 H 0.0 **** 0.06
27714 H 3.782318827741733 98.67629267556276 72.9072602316382 H 0.0 **** 0.06
27715 H 5.349138824641841 98.88917244242862 72.09057085728467 H 0.0 **** 0.06
27716 C 30.132676778411422 40.73587518870386 27.856697932298403 C 0.0 **** -0.24
27717 H 30.645465482740946 40.77472359231976 28.817757388181633 H 0.0 **** 0.06
27718 H 30.4256607004734 39.83037651733761 27.32543782233762 H 0.0 **** 0.06
27719 H 30.403702776644877 41.60969071452553 27.264806025950634 H 0.0 **** 0.06
27720 H 29.054583314306683 40.72773645535304 28.02062789258912 H 0.0 **** 0.06
27721 C 85.88966397896871 12.907217940112247 77.88271951802255 C 0.0 **** -0.24
27722 H 86.35415288488076 12.316955221929447 78.67240280539636 H 0.0 **** 0.06
27723 H 86.66424156624754 13.345867494662542 77.25347721748511 H 0.0 **** 0.06
27724 H 85.28890334197604 13.700018550180374 78.32716020556921 H 0.0 **** 0.06
27725 H 85.25065443740687 12.262958573175979 77.27680407171198 H 0.0 **** 0.06
27726 C 94.77725693390025 30.048204302607132 84.81273060809616 C 0.0 **** -0.24
27727 H 95.57750167585603 29.400832555821523 85.1718850663508 H 0.0 **** 0.06
27728 H 94.22439950744986 30.447186335816866 85.66441179279599 H 0.0 **** 0.06
27729 H 94.10334440256156 29.474520900286848 84.17707822928648 H 0.0 **** 0.06
27730 H 95.20582193996425 30.87052395903561 84.23995129410793 H 0.0 **** 0.06
27731 C 105.20665214609079 84.72720449788585 44.38292135527905 C 0.0 **** -0.24
27732 H 104.92527769685782 84.43494038885008 45.39446019610523 H 0.0 **** 0.06
27733 H 104.90048263491514 83.94957310027142 43.68200520218471 H 0.0 **** 0.06
27734 H 106.28677860949517 84.85919669791586 44.3303328438389 H 0.0 **** 0.06
27735 H 104.71350668156484 85.66428748207797 44.12478620519602 H 0.0 **** 0.06
27736 C 38.46411730984306 55.14412013327234 94.84018955841066 C 0.0 **** -0.24
27737 H 38.270408414534984 54.86614574831491 95.87645056003024 H 0.0 **** 0.06
27738 H 39.42180194632499 55.66176854217954 94.77508151938099 H 0.0 **** 0.06
27739 H 37.67022068697429 55.80105371761959 94.48517950526565 H 0.0 **** 0.06
27740 H 38.49429179800643 54.24520593120738 94.22326204039177 H 0.0 **** 0.06
27741 C 74.58811732974773 85.13192232315996 36.165152399644825 C 0.0 **** -0.24
27742 H 75.45355912267769 85.78930254268126 36.080402810936846 H 0.0 **** 0.06
27743 H 73.8344672964466 85.42750828615716 35.43513164173467 H 0.0 **** 0.06
27744 H 74.17085596922111 85.20912968805783 37.16972433257159 H 0.0 **** 0.06
27745 H 74.89352929290267 84.103342249384 35.97721033513267 H 0.0 **** 0.06
27746 C 87.99792316607461 67.8865221376186 91.2567205389887 C 0.0 **** -0.24
27747 H 88.39184375651367 66.992387776526 90.77344003046738 H 0.0 **** 0.06
27748 H 87.24786340584647 67.59898170222306 91.99379896668091 H 0.0 **** 0.06
27749 H 87.54164084922527 68.53250359789104 90.50685714081493 H 0.0 **** 0.06
27750 H 88.80874092721166 68.41907519077591 91.75153406323324 H 0.0 **** 0.06
27751 C 12.421790050313774 65.6378770818148 25.61080084672541 C 0.0 **** -0.24
27752 H 11.586756273766866 64.93764176339599 25.63381876516428 H 0.0 **** 0.06
27753 H 12.418516687793485 66.23600277389544 26.5229816186379 H 0.0 **** 0.06
27754 H 12.321559979880377 66.29333234444843 24.745890420663955 H 0.0 **** 0.06
27755 H 13.35846374620445 65.08502572164916 25.54164539288773 H 0.0 **** 0.06
27756 C 71.16521977885486 0.8164399328558147 86.07282172793845 C 0.0 **** -0.24
27757 H 71.81128772477757 0.08368182647822664 86.55705156436244 H 0.0 **** 0.06
27758 H 71.70455167028956 1.290333628824925 85.25310252482592 H 0.0 **** 0.06
27759 H 70.86748194115262 1.5720776508228482 86.79889161863383 H 0.0 **** 0.06
27760 H 70.2776061290615 0.31615772405467624 85.68353965618132 H 0.0 **** 0.06
27761 C 80.5922565029877 49.32005224428769 5.175933678958188 C 0.0 **** -0.24
27762 H 79.7047109221806 48.89844298341395 4.7052595339462755 H 0.0 **** 0.06
27763 H 81.00348406313282 50.104109204273676 4.539465807495162 H 0.0 **** 0.06
27764 H 81.33748262915209 48.53652297474696 5.314388198196809 H 0.0 **** 0.06
27765 H 80.32483572353708 49.74196984295285 6.144322732169655 H 0.0 **** 0.06
27766 C 71.78767405256502 101.05096206368474 15.387870581860483 C 0.0 **** -0.24
27767 H 71.32805322512479 100.52046252496922 16.22240741027923 H 0.0 **** 0.06
27768 H 71.97217956086251 102.0864418035455 15.674124249992559 H 0.0 **** 0.06
27769 H 71.11732050004491 101.02423611661017 14.527770204834496 H 0.0 **** 0.06
27770 H 72.73102962657964 100.5718139312739 15.128037933167775 H 0.0 **** 0.06
27771 C 107.24081438930183 46.180196843271844 66.47123838175702 C 0.0 **** -0.24
27772 H 106.8176717056541 47.15966239360938 66.25224260727916 H 0.0 **** 0.06
27773 H 108.29968307533706 46.17495508295205 66.2105404409703 H 0.0 **** 0.06
27774 H 106.71884370247031 45.419977304243744 65.88923697527792 H 0.0 **** 0.06
27775 H 107.12818568842198 45.96410010008171 67.53446732812625 H 0.0 **** 0.06
27776 C 82.23952742502226 106.86368878867088 74.02404780647385 C 0.0 **** -0.24
27777 H 83.1405272813829 107.34474679304174 74.40519240694863 H 0.0 **** 0.06
27778 H 81.9333739462237 107.34789227201031 73.09627746416425 H 0.0 **** 0.06
27779 H 81.44087104986534 106.95192276274139 74.7614863191045 H 0.0 **** 0.06
27780 H 82.44389630098732 105.80978475904257 73.83446825416496 H 0.0 **** 0.06
27781 C 49.397428217817435 69.194583463333 50.723645743805264 C 0.0 **** -0.24
27782 H 48.6804890503486 69.45449825074996 49.94519328075995 H 0.0 **** 0.06
27783 H 48.86190281501561 68.88631788873974 51.62136429140884 H 0.0 **** 0.06
27784 H 50.01788720761908 70.06093902992808 50.94961992536906 H 0.0 **** 0.06
27785 H 50.0285332584223 68.37656603197797 50.37692594440739 H 0.0 **** 0.06
27786 C 101.17626510999503 98.15887394631524 46.33384693609628 C 0.0 **** -0.24
27787 H 102.26119409253792 98.07912127200169 46.26292187971353 H 0.0 **** 0.06
27788 H 100.7166486179592 97.30314125638749 45.837669491394536 H 0.0 **** 0.06
27789 H 100.84707613196613 99.07898184977115 45.851058378006655 H 0.0 **** 0.06
27790 H 100.8803840833761 98.17330933736993 47.3827114448402 H 0.0 **** 0.06
27791 C 44.50944920324819 1.3042489905473644 49.48263529170792 C 0.0 **** -0.24
27792 H 44.36607532043904 2.3488674806234826 49.20574923362538 H 0.0 **** 0.06
27793 H 43.57478240412066 0.7606124592334709 49.34691867141201 H 0.0 **** 0.06
27794 H 44.81785445490249 1.243013296601248 50.52599864670873 H 0.0 **** 0.06
27795 H 45.281265827048074 0.8646881814001404 48.84982316351875 H 0.0 **** 0.06
27796 C 88.58911352847137 28.15921076083015 31.50852054879425 C 0.0 **** -0.24
27797 H 88.33995570861435 27.129253817367385 31.76618480027126 H 0.0 **** 0.06
27798 H 89.23954407248321 28.16686296881295 30.633647241400126 H 0.0 **** 0.06
27799 H 89.10099682514569 28.630225771260882 32.34680511075001 H 0.0 **** 0.06
27800 H 87.67402661644508 28.70857205306237 31.28508846480011 H 0.0 **** 0.06
27801 C 104.86178582288926 77.83956734722152 104.40759324118568 C 0.0 **** -0.24
27802 H 104.51406812814764 76.94415978091365 104.92285863850327 H 0.0 **** 0.06
27803 H 104.20624632588601 78.0505874842891 103.56335148300212 H 0.0 **** 0.06
27804 H 105.87822765140228 77.67969343641488 104.04798363318329 H 0.0 **** 0.06
27805 H 104.85024414476044 78.68286006426428 105.09771633661032 H 0.0 **** 0.06
27806 C 67.44209318237785 36.09878884688358 29.68794284966077 C 0.0 **** -0.24
27807 H 67.51365146994635 35.98811438461836 28.607002892521834 H 0.0 **** 0.06
27808 H 68.2737610909744 36.70401180979583 30.047965572034684 H 0.0 **** 0.06
27809 H 67.47917304948078 35.114818622043565 30.15664474825809 H 0.0 **** 0.06
27810 H 66.50033673173692 36.5862866441779 29.941945735618845 H 0.0 **** 0.06
27811 C 30.31151235787499 103.50332510598687 78.77786015296276 C 0.0 **** -0.24
27812 H 30.252990228405082 102.91491401812789 79.69345683117588 H 0.0 **** 0.06
27813 H 29.409837040829046 104.10821456688389 78.67837080696944 H 0.0 **** 0.06
27814 H 30.397296643223115 102.83533909817982 77.92141317304018 H 0.0 **** 0.06
27815 H 31.183540670228012 104.15564351905611 78.82035750493877 H 0.0 **** 0.06
27816 C 62.53766376718659 8.749107483199225 39.79631882007169 C 0.0 **** -0.24
27817 H 63.239811222453454 9.159410930447166 39.06970418653289 H 0.0 **** 0.06
27818 H 61.58670225578442 9.275771571259071 39.72054388430047 H 0.0 **** 0.06
27819 H 62.94249875103259 8.87215754127186 40.8007998036808 H 0.0 **** 0.06
27820 H 62.38384502739524 7.688775267338826 39.594454633522474 H 0.0 **** 0.06
27821 C 9.165367968974635 28.055749462545847 16.09921956782148 C 0.0 **** -0.24
27822 H 8.859463346861133 27.534284552685946 15.192223733288614 H 0.0 **** 0.06
27823 H 8.901678608090165 29.11071237947469 16.018721495219324 H 0.0 **** 0.06
27824 H 10.243933791065402 27.95892097481717 16.22598224235591 H 0.0 **** 0.06
27825 H 8.658007529007591 27.618315259672798 16.958602133175702 H 0.0 **** 0.06
27826 C 61.62633289427782 68.464464187819 53.90658182410667 C 0.0 **** -0.24
27827 H 62.03977163080202 67.4574858665539 53.846184575229266 H 0.0 **** 0.06
27828 H 62.25915522091327 69.07860265962216 54.54783653879635 H 0.0 **** 0.06
27829 H 60.62108662952653 68.4196060998994 54.32235014281964 H 0.0 **** 0.06
27830 H 61.58863822310252 68.90136729026096 52.90879601967515 H 0.0 **** 0.06
27831 C 19.25343428446243 54.09836322059337 97.00724776378048 C 0.0 **** -0.24
27832 H 18.3897269582161 54.371512494591265 96.39998923242996 H 0.0 **** 0.06
27833 H 20.09143995891651 54.749727383076966 96.75780842909249 H 0.0 **** 0.06
27834 H 19.526001693692592 53.06262371141201 96.80598579310613 H 0.0 **** 0.06
27835 H 19.004971384967803 54.21198454815942 98.06225586437807 H 0.0 **** 0.06
27836 C 31.559761998317867 90.68577117163672 36.28149774001392 C 0.0 **** -0.24
27837 H 32.59786815797395 90.9568124329089 36.47115247153448 H 0.0 **** 0.06
27838 H 31.004981920424882 91.57104570237156 35.971201452959605 H 0.0 **** 0.06
27839 H 31.117626371466315 90.27998992771559 37.19158972260723 H 0.0 **** 0.06
27840 H 31.51943922136485 89.93573198717904 35.492089740704984 H 0.0 **** 0.06
27841 C 21.94243433680515 24.33620083847586 51.89916509304822 C 0.0 **** -0.24
27842 H 21.000399099557967 24.79461897851536 52.20145501249536 H 0.0 **** 0.06
27843 H 22.77246384709116 24.8846890991328 52.346272967908824 H 0.0 **** 0.06
27844 H 22.029551036441774 24.366693037341747 50.81307824647547 H 0.0 **** 0.06
27845 H 21.967274419729165 23.30010496164107 52.236402432186004 H 0.0 **** 0.06
27846 C 38.47985748238591 33.174709531867336 104.8734189891391 C 0.0 **** -0.24
27847 H 37.880516169833356 32.317945664892875 105.18014746939029 H 0.0 **** 0.06
27848 H 39.47671301693521 32.83665701860716 104.59020656234371 H 0.0 **** 0.06
27849 H 38.55594425339788 33.880028115152115 105.70075822645258 H 0.0 **** 0.06
27850 H 38.0058886051163 33.66310136207692 104.02128242963444 H 0.0 **** 0.06
27851 C 57.47703117159303 7.22649150108964 1.8376480836638933 C 0.0 **** -0.24
27852 H 57.14223712969091 8.263309362007703 1.8565787756178764 H 0.0 **** 0.06
27853 H 58.16650668700855 7.05195211618846 2.663604647678767 H 0.0 **** 0.06
27854 H 57.98146876290699 7.024113691468045 0.8931865247860884 H 0.0 **** 0.06
27855 H 56.615833987877956 6.565894342150386 1.9376657503215995 H 0.0 **** 0.06
27856 C 2.5069550938267184 101.6113881783228 53.63253709944382 C 0.0 **** -0.24
27857 H 2.1013467812852014 101.18370681889908 52.71594162872185 H 0.0 **** 0.06
27858 H 2.2330516441982695 100.98146368567033 54.47871010318437 H 0.0 **** 0.06
27859 H 2.0995573444371303 102.61270227765496 53.777288448726495 H 0.0 **** 0.06
27860 H 3.59247993925743 101.66834308483745 53.557406295936346 H 0.0 **** 0.06
27861 C 49.170598903282034 12.236202571867807 62.988673618806686 C 0.0 **** -0.24
27862 H 49.925711939556116 11.50706254217559 63.28410195601488 H 0.0 **** 0.06
27863 H 48.27935249071751 12.106165123973 63.60359547496303 H 0.0 **** 0.06
27864 H 48.9139936516945 12.088941345338583 61.93998273647465 H 0.0 **** 0.06
27865 H 49.565113388623544 13.242721698664582 63.128370815735124 H 0.0 **** 0.06
27866 C 75.84973322206042 110.1653895514851 29.025956175059633 C 0.0 **** -0.24
27867 H 75.88216113899313 111.13281135001716 29.527597731115023 H 0.0 **** 0.06
27868 H 74.9919555739823 109.59744747373313 29.38627830606302 H 0.0 **** 0.06
27869 H 76.76665757122998 109.61438270572356 29.2386860543384 H 0.0 **** 0.06
27870 H 75.75859908813277 110.31704528979085 27.95037408035975 H 0.0 **** 0.06
27871 C 80.14971290225361 45.77292484553709 97.16830988921276 C 0.0 **** -0.24
27872 H 80.98965490006543 46.04325881637487 97.80751773444683 H 0.0 **** 0.06
27873 H 79.85454630365618 46.636745350863464 96.57168219599049 H 0.0 **** 0.06
27874 H 79.31062751707191 45.45478940542847 97.78704916420565 H 0.0 **** 0.06
27875 H 80.44304967919953 44.95744814690454 96.50786157349535 H 0.0 **** 0.06
27876 C 61.41366819882603 29.915113581284032 90.35422387193552 C 0.0 **** -0.24
27877 H 61.11219220096375 29.118394275486224 91.03375699672438 H 0.0 **** 0.06
27878 H 60.68955172085951 30.728595585019434 90.40590676286604 H 0.0 **** 0.06
27879 H 61.45313312357831 29.5280880871303 89.3358513788005 H 0.0 **** 0.06
27880 H 62.397758436741796 30.284455606690727 90.6413380694662 H 0.0 **** 0.06
27881 C 28.555414847365597 98.81461868319458 87.97507629116919 C 0.0 **** -0.24
27882 H 28.611059759436046 99.8024986576584 87.51669044628238 H 0.0 **** 0.06
27883 H 28.934964770039713 98.06891369203521 87.2761473384482 H 0.0 **** 0.06
27884 H 27.518201328057316 98.58679875341984 88.22192838101083 H 0.0 **** 0.06
27885 H 29.15729663558207 98.80122393572331 88.88328969385873 H 0.0 **** 0.06
27886 C 28.112266949103557 28.781340230130013 63.647184228946 C 0.0 **** -0.24
27887 H 27.381255077078293 29.58795301406613 63.591442037598085 H 0.0 **** 0.06
27888 H 27.668806785582234 27.92320644197804 64.15365662730807 H 0.0 **** 0.06
27889 H 28.986277943691107 29.121066113013512 64.20340079373545 H 0.0 **** 0.06
27890 H 28.41269864897842 28.493874320791235 62.639564319928354 H 0.0 **** 0.06
27891 C 27.777143605739127 89.34335020963874 0.3400871393764078 C 0.0 **** -0.24
27892 H 28.017773627077354 90.28688867934014 0.8288324998396206 H 0.0 **** 0.06
27893 H 28.39344265783523 89.22854182345282 -0.5517061408161794 H 0.0 **** 0.06
27894 H 26.724168646879605 89.3397037142567 0.05740852373594407 H 0.0 **** 0.06
27895 H 27.97219398718355 88.51921729441693 1.0261381641820435 H 0.0 **** 0.06
27896 C 54.56791020610606 47.61185546674548 11.138661410552185 C 0.0 **** -0.24
27897 H 55.12672912412039 47.07004226565573 11.902539454800618 H 0.0 **** 0.06
27898 H 54.71323536390252 48.68421863162558 11.275576200269061 H 0.0 **** 0.06
27899 H 53.507591933810794 47.3742930479211 11.22814895920887 H 0.0 **** 0.06
27900 H 54.92463007112114 47.3190211801581 10.152079603549096 H 0.0 **** 0.06
27901 C 106.05868051472457 89.99300187159159 108.76639566239764 C 0.0 **** -0.24
27902 H 106.09160643706868 88.94875303053948 108.45650221813509 H 0.0 **** 0.06
27903 H 105.0354503032075 90.26132775345911 109.03101601952949 H 0.0 **** 0.06
27904 H 106.40052552130132 90.62528120618242 107.94750279884477 H 0.0 **** 0.06
27905 H 106.70793715619152 90.13553133151083 109.63091226456673 H 0.0 **** 0.06
27906 C 70.26223448007791 106.1207199192011 16.20144878881264 C 0.0 **** -0.24
27907 H 69.98697111186424 105.220905850034 16.75069773138658 H 0.0 **** 0.06
27908 H 70.67055871242354 105.8429677053687 15.229509602028145 H 0.0 **** 0.06
27909 H 71.01297993000664 106.67529585905316 16.764976569866462 H 0.0 **** 0.06
27910 H 69.37965498852458 106.745289803302 16.060623822558384 H 0.0 **** 0.06
27911 C 103.20939547224287 60.785629363172575 69.0358531595344 C 0.0 **** -0.24
27912 H 102.25271716711893 61.07382316741928 69.47207409825221 H 0.0 **** 0.06
27913 H 103.05088504387362 60.428185437441755 68.0189505292198 H 0.0 **** 0.06
27914 H 103.65709602433918 59.99252411756356 69.63528459879203 H 0.0 **** 0.06
27915 H 103.87516036037493 61.648101301095664 69.02010628964233 H 0.0 **** 0.06
27916 C 16.220585008859434 2.211376643145911 68.35842812230298 C 0.0 **** -0.24
27917 H 16.831871715110186 1.5093066188096032 67.79018605736559 H 0.0 **** 0.06
27918 H 15.23227847373212 1.7815412580710017 68.52197772914903 H 0.0 **** 0.06
27919 H 16.124497541093664 3.1421572318077438 67.80061959119757 H 0.0 **** 0.06
27920 H 16.69505699394394 2.4101480945074627 69.31966430697807 H 0.0 **** 0.06
27921 C 91.78459060579786 88.8092411273444 44.1572650929636 C 0.0 **** -0.24
27922 H 91.0807991923372 88.96278687085461 43.338999182251996 H 0.0 **** 0.06
27923 H 92.33037968900757 89.73388646649545 44.34500428740668 H 0.0 **** 0.06
27924 H 92.48675788987885 88.01992683163704 43.88757487429825 H 0.0 **** 0.06
27925 H 91.23917073818023 88.51979555214996 45.05545669508845 H 0.0 **** 0.06
27926 C 33.67493848715128 2.29226732627329 7.090363197164601 C 0.0 **** -0.24
27927 H 33.26266024388457 1.3113730366741834 6.857108624388227 H 0.0 **** 0.06
27928 H 33.369880739736715 2.5851167777309882 8.095437695008576 H 0.0 **** 0.06
27929 H 33.30396920801098 3.0232261783065297 6.371475366321395 H 0.0 **** 0.06
27930 H 34.76323677240836 2.2512422502977927 7.0386278134946725 H 0.0 **** 0.06
27931 C 52.3102796227883 62.05811449002496 56.00200833354353 C 0.0 **** -0.24
27932 H 51.885852986285585 62.31995455282929 56.97124800699308 H 0.0 **** 0.06
27933 H 51.54448800615887 62.15469949155498 55.23197372383717 H 0.0 **** 0.06
27934 H 52.671793767952835 61.030645325555525 56.02877249572805 H 0.0 **** 0.06
27935 H 53.13982024345387 62.72921803270641 55.77628240638728 H 0.0 **** 0.06
27936 C 43.75832108357338 22.592019435411316 42.16605640147361 C 0.0 **** -0.24
27937 H 43.05733459705084 23.378482786895574 42.44442852442273 H 0.0 **** 0.06
27938 H 43.601957799104866 22.318170660226713 41.1228756493623 H 0.0 **** 0.06
27939 H 43.59704821185818 21.72051548153263 42.80022879988559 H 0.0 **** 0.06
27940 H 44.77831057855764 22.953076910953826 42.29825196495585 H 0.0 **** 0.06
27941 C 58.831299404758056 62.59136914508849 16.288288024184737 C 0.0 **** -0.24
27942 H 58.20876028774131 61.74832976834233 16.591516477947636 H 0.0 **** 0.06
27943 H 58.54228956030465 62.914575000755605 15.287921567535875 H 0.0 **** 0.06
27944 H 59.87690141844155 62.28679478785722 16.284749793389494 H 0.0 **** 0.06
27945 H 58.69425814377814 63.413652659506226 16.990850667454396 H 0.0 **** 0.06
27946 C 14.963104641208929 70.87449605994016 59.52059276551125 C 0.0 **** -0.24
27947 H 15.99710562354386 70.94526026227135 59.18074396615026 H 0.0 **** 0.06
27948 H 14.510616463269116 69.96781783089511 59.11670805219097 H 0.0 **** 0.06
27949 H 14.40665063858438 71.74440059399353 59.172261376410574 H 0.0 **** 0.06
27950 H 14.94001839369551 70.83946016506411 60.60965485219958 H 0.0 **** 0.06
27951 C 79.19070647669957 107.35649786762585 36.57303710372178 C 0.0 **** -0.24
27952 H 80.15696475031626 107.51793960785122 37.05029302485399 H 0.0 **** 0.06
27953 H 78.9150024863992 108.24343302978377 36.002045781922426 H 0.0 **** 0.06
27954 H 78.43657431494745 107.16704921622048 37.33753999551181 H 0.0 **** 0.06
27955 H 79.25506770434964 106.49751570114765 35.90516511076457 H 0.0 **** 0.06
27956 C 16.61767077914 18.962700437508232 23.543187651057707 C 0.0 **** -0.24
27957 H 16.35844730967156 17.9240473286616 23.74776191956113 H 0.0 **** 0.06
27958 H 16.235296583168576 19.597764808102227 24.342883842063628 H 0.0 **** 0.06
27959 H 16.176518013451755 19.2674209459918 22.594299159920553 H 0.0 **** 0.06
27960 H 17.70251847987889 19.0608246223492 23.48802501966867 H 0.0 **** 0.06
27961 C 41.87186315658795 110.1940818322618 107.3096711455832 C 0.0 **** -0.24
27962 H 42.87259387956101 109.91426399648911 106.9818652790548 H 0.0 **** 0.06
27963 H 41.13306618966254 109.72598781698491 106.65884414343029 H 0.0 **** 0.06
27964 H 41.76316866890437 111.27779257365358 107.26249819214888 H 0.0 **** 0.06
27965 H 41.71837415204584 109.85745359881955 108.3349770955742 H 0.0 **** 0.06
27966 C 72.64327329332993 2.412276374960686 96.51121806131462 C 0.0 **** -0.24
27967 H 73.10151025395383 3.2286664063598725 97.06979746977021 H 0.0 **** 0.06
27968 H 72.75051683223272 2.598274907741944 95.44285573027118 H 0.0 **** 0.06
27969 H 71.58660284030674 2.3463978668820653 96.76551155261853 H 0.0 **** 0.06
27970 H 73.13802464255369 1.4752829856058822 96.769174029586 H 0.0 **** 0.06
27971 C 9.12621252060002 84.91000968339354 86.30091490861503 C 0.0 **** -0.24
27972 H 9.14578858243685 85.81355281703634 86.9104912598749 H 0.0 **** 0.06
27973 H 8.114855101541721 84.7489356713465 85.92502906862924 H 0.0 **** 0.06
27974 H 9.429036646314671 84.05612537824767 86.90755146422902 H 0.0 **** 0.06
27975 H 9.812205688032748 85.02201351750908 85.46195472421181 H 0.0 **** 0.06
27976 C 9.898975058876914 6.071143721264775 107.10998318785812 C 0.0 **** -0.24
27977 H 9.748637975239376 5.149857866439021 107.67254683217362 H 0.0 **** 0.06
27978 H 9.004354514525346 6.689065773010867 107.17864970334034 H 0.0 **** 0.06
27979 H 10.095611745751427 5.830148999200489 106.0646007875786 H 0.0 **** 0.06
27980 H 10.749519820847127 6.613766004290895 107.52393421618663 H 0.0 **** 0.06
27981 C 88.953243906036 21.54987209688798 40.96915050011117 C 0.0 **** -0.24
27982 H 88.22437796378793 20.97939678280187 40.39377056624397 H 0.0 **** 0.06
27983 H 89.03046604760198 22.55769806566707 40.55939769260391 H 0.0 **** 0.06
27984 H 89.92441643702705 21.05952015856613 40.91344992475089 H 0.0 **** 0.06
27985 H 88.63247894700925 21.604186101572196 42.00911854053308 H 0.0 **** 0.06
27986 C 78.12306667989077 3.0859057957145986 50.24921023076448 C 0.0 **** -0.24
27987 H 78.25350688911772 2.290967819913557 50.98291906699337 H 0.0 **** 0.06
27988 H 78.7594339574486 3.9314134018640647 50.51326776559447 H 0.0 **** 0.06
27989 H 77.08044517776608 3.4036497106544985 50.2388690084718 H 0.0 **** 0.06
27990 H 78.40116535921538 2.716870411939732 49.261275610369815 H 0.0 **** 0.06
27991 C 32.3325773736189 19.2762133554225 107.02666106711257 C 0.0 **** -0.24
27992 H 33.158264793268444 19.243406239513916 106.31583288078616 H 0.0 **** 0.06
27993 H 32.01839484029364 18.25927416103457 107.2640927417778 H 0.0 **** 0.06
27994 H 31.496814068454725 19.82081569518175 106.58777417791791 H 0.0 **** 0.06
27995 H 32.6564935779009 19.778905057476635 107.93725044288595 H 0.0 **** 0.06
27996 C 98.91153341580876 33.22911997693029 96.86153288713055 C 0.0 **** -0.24
27997 H 99.3144554638539 34.241521983077575 96.86070052767468 H 0.0 **** 0.06
27998 H 98.09814058786283 33.162478074125744 97.58429613521008 H 0.0 **** 0.06
27999 H 99.69780176503275 32.52448822548155 97.13209323308948 H 0.0 **** 0.06
28000 H 98.53410084140913 32.98787529326097 95.86722134296363 H 0.0 **** 0.06
28001 C 93.04341257215879 77.05393692170304 63.987578844080076 C 0.0 **** -0.24
28002 H 93.99771866993143 77.1293737775851 63.468319968713985 H 0.0 **** 0.06
28003 H 92.26924194455972 76.75106677367864 63.28197039218912 H 0.0 **** 0.06
28004 H 92.78460860706542 78.02180803105034 64.41644564615393 H 0.0 **** 0.06
28005 H 93.11966269655954 76.31336104417474 64.78321505477908 H 0.0 **** 0.06
28006 C 89.67800647286225 2.857557286142379 58.02581679524144 C 0.0 **** -0.24
28007 H 88.61927405790638 3.0479437779727796 58.20293655886198 H 0.0 **** 0.06
28008 H 90.06427946971861 3.5913135513050385 57.3178021862129 H 0.0 **** 0.06
28009 H 89.80348437481648 1.855838718354816 57.616253760117615 H 0.0 **** 0.06
28010 H 90.22357265206163 2.937124906855619 58.96610200197131 H 0.0 **** 0.06
28011 C 69.67326552296149 45.350142821513955 65.12990768303382 C 0.0 **** -0.24
28012 H 70.48805940466207 45.48528224863284 64.41941212378742 H 0.0 **** 0.06
28013 H 69.0093064392725 46.21402770438675 65.09022132712539 H 0.0 **** 0.06
28014 H 70.08184815583508 45.25133269821529 66.13552317443953 H 0.0 **** 0.06
28015 H 69.11384809207684 44.449928634820736 64.87447410678274 H 0.0 **** 0.06
28016 C 99.26462378615675 84.00072657362068 32.94491746597163 C 0.0 **** -0.24
28017 H 100.34299566185773 83.84779044906054 32.97819411088727 H 0.0 **** 0.06
28018 H 98.98033991951334 84.74708003864461 33.68676578273519 H 0.0 **** 0.06
28019 H 98.75768827363147 83.06035956811178 33.16311932722152 H 0.0 **** 0.06
28020 H 98.97727348342909 84.34651818240704 31.952377966968555 H 0.0 **** 0.06
28021 C 100.98758837800995 51.47615888579725 99.64495074703149 C 0.0 **** -0.24
28022 H 100.16453179558971 51.30498179018778 100.33796441212884 H 0.0 **** 0.06
28023 H 101.19657440885612 52.54485292169852 99.58631897666558 H 0.0 **** 0.06
28024 H 100.71435377258206 51.10374062439544 98.65757785467505 H 0.0 **** 0.06
28025 H 101.87536455858765 50.950212236410266 99.99818491765008 H 0.0 **** 0.06
28026 C 45.141878794264244 75.65227070116602 53.32907689965893 C 0.0 **** -0.24
28027 H 45.92550055529165 76.0764257757522 53.95652659331591 H 0.0 **** 0.06
28028 H 45.587943227652374 74.97181683601504 52.60282635251259 H 0.0 **** 0.06
28029 H 44.622361082080374 76.4532153706907 52.80452600836673 H 0.0 **** 0.06
28030 H 44.43383300758586 75.1064027970515 53.95246210746846 H 0.0 **** 0.06
28031 C 21.046396327721467 12.220826172778061 42.78005409894553 C 0.0 **** -0.24
28032 H 20.30242988594736 11.634107031115732 43.317541065721855 H 0.0 **** 0.06
28033 H 21.701485328993982 11.552138897011531 42.220975842220014 H 0.0 **** 0.06
28034 H 21.636780246241244 12.798414646416362 43.49033013177825 H 0.0 **** 0.06
28035 H 20.544252700343776 12.898248185621497 42.08903749392107 H 0.0 **** 0.06
28036 C 84.28617906684917 95.39157359354243 0.19365410409601225 C 0.0 **** -0.24
28037 H 84.74472409750035 96.09536664232863 -0.5006862380471517 H 0.0 **** 0.06
28038 H 85.03265526444841 94.66651303465505 0.5204480547147909 H 0.0 **** 0.06
28039 H 83.4673410282955 94.87180597600226 -0.30230007509682366 H 0.0 **** 0.06
28040 H 83.90245761990286 95.9330635989529 1.0588079628531801 H 0.0 **** 0.06
28041 C 26.216359089079106 93.41867081094527 56.042582533624 C 0.0 **** -0.24
28042 H 26.088503513529645 93.20446113288298 57.10307102265995 H 0.0 **** 0.06
28043 H 27.27476424883281 93.36233996993128 55.78583529052662 H 0.0 **** 0.06
28044 H 25.842689065649665 94.41978918565798 55.82733511778699 H 0.0 **** 0.06
28045 H 25.66058775552409 92.68874507766418 55.45467748991712 H 0.0 **** 0.06
28046 C 29.851312184877493 8.575636240341495 26.960001899887658 C 0.0 **** -0.24
28047 H 30.296033534519474 7.763622538139998 26.384878095171388 H 0.0 **** 0.06
28048 H 30.381033949469142 9.503711406495555 26.746504733474097 H 0.0 **** 0.06
28049 H 29.92540455977577 8.349903630443649 28.023756023889973 H 0.0 **** 0.06
28050 H 28.802021389423913 8.68306034484641 26.683325789029766 H 0.0 **** 0.06
28051 C 59.409401326805664 3.2573016827295334 8.282772299424554 C 0.0 **** -0.24
28052 H 58.85377299775399 3.859019484718715 7.563121267478376 H 0.0 **** 0.06
28053 H 60.251811692780024 2.778572132466266 7.781519244770115 H 0.0 **** 0.06
28054 H 58.754526142739394 2.4944199408620165 8.701930497043996 H 0.0 **** 0.06
28055 H 59.7797515524195 3.898905937862537 9.082072869651642 H 0.0 **** 0.06
28056 C 67.89513836764652 4.180777275543903 107.26843743911598 C 0.0 **** -0.24
28057 H 68.43945024829357 3.75023783751476 106.42727564998995 H 0.0 **** 0.06
28058 H 67.87407858998277 3.466863438451526 108.09180688736183 H 0.0 **** 0.06
28059 H 66.87537278431746 4.410998500892333 106.95998311106717 H 0.0 **** 0.06
28060 H 68.39260416145513 5.095156652480057 107.59106857244694 H 0.0 **** 0.06
28061 C 80.16971494956339 102.74244923163846 100.9466276304634 C 0.0 **** -0.24
28062 H 80.25431964565414 102.41262134852899 101.98221411108511 H 0.0 **** 0.06
28063 H 79.18669071960075 103.18625325223923 100.7859162808807 H 0.0 **** 0.06
28064 H 80.29673911612569 101.88815668695162 100.28227922704298 H 0.0 **** 0.06
28065 H 80.94140012068746 103.48338253447945 100.73769326095285 H 0.0 **** 0.06
28066 C 89.46353069678327 5.179132364638525 100.40194806938143 C 0.0 **** -0.24
28067 H 88.43553896113335 5.5349013366814415 100.33595457576683 H 0.0 **** 0.06
28068 H 90.0317092544604 5.552875970869698 99.5502030552725 H 0.0 **** 0.06
28069 H 89.47121771494142 4.08905934345041 100.3945006771649 H 0.0 **** 0.06
28070 H 89.91336641273631 5.53930306501624 101.326357909184 H 0.0 **** 0.06
28071 C 55.771888905213984 92.37925272166916 109.00246947028339 C 0.0 **** -0.24
28072 H 56.160293390551146 92.50128915059719 110.01369882571859 H 0.0 **** 0.06
28073 H 54.90978125926213 91.7121018578211 109.02288748508383 H 0.0 **** 0.06
28074 H 56.54728712021475 91.95359018037345 108.36536606233511 H 0.0 **** 0.06
28075 H 55.47122031829977 93.35026384008756 108.60930089622883 H 0.0 **** 0.06
28076 C 37.861614766182214 17.21295119507718 16.241263991000416 C 0.0 **** -0.24
28077 H 37.68924739040975 17.878092986758617 15.394318488743295 H 0.0 **** 0.06
28078 H 36.90505465915891 16.843889000530396 16.61239285357711 H 0.0 **** 0.06
28079 H 38.373558485344205 17.759099705932755 17.03291550063742 H 0.0 **** 0.06
28080 H 38.478122768830914 16.37173048117897 15.922148966785826 H 0.0 **** 0.06
28081 C 52.3981001240153 6.976533424016054 98.0722990196662 C 0.0 **** -0.24
28082 H 51.52592522696741 7.020689226919927 97.41954946823316 H 0.0 **** 0.06
28083 H 52.52723490630426 7.93735543762584 98.57038534754237 H 0.0 **** 0.06
28084 H 53.28487908721477 6.75281747660793 97.47867960232615 H 0.0 **** 0.06
28085 H 52.25405018780778 6.196152926169631 98.81952028896946 H 0.0 **** 0.06
28086 C 31.01131851274431 65.28910963819777 51.497148962258144 C 0.0 **** -0.24
28087 H 32.08615133242972 65.12789437573926 51.42090770908504 H 0.0 **** 0.06
28088 H 30.509374102406298 64.79372619341846 50.66606305752202 H 0.0 **** 0.06
28089 H 30.800965463927923 66.35899314867196 51.46359754952033 H 0.0 **** 0.06
28090 H 30.64819855402959 64.87731326227096 52.43869310028639 H 0.0 **** 0.06
28091 C 91.91538692408865 12.595143266309108 5.766052672773185 C 0.0 **** -0.24
28092 H 92.3149104650924 11.72818683485464 6.29235793051231 H 0.0 **** 0.06
28093 H 92.13681807120587 13.498273379521095 6.334106314769585 H 0.0 **** 0.06
28094 H 90.83634380917636 12.488005755901256 5.658148968990844 H 0.0 **** 0.06
28095 H 92.3733978731522 12.662960819442176 4.779288526427663 H 0.0 **** 0.06
28096 C 6.608802323229412 103.57097173613377 35.53647765106038 C 0.0 **** -0.24
28097 H 6.053558504252123 102.65711777901784 35.750797602171446 H 0.0 **** 0.06
28098 H 6.369719705775395 103.91254983147154 34.52906082080378 H 0.0 **** 0.06
28099 H 7.677236326247339 103.37186874046965 35.60938464637033 H 0.0 **** 0.06
28100 H 6.332412188554343 104.34068017930188 36.25666867318742 H 0.0 **** 0.06
28101 C 71.44483923260208 76.04306415118018 52.6552304325381 C 0.0 **** -0.24
28102 H 70.610373244387 75.34995755542533 52.75864445064028 H 0.0 **** 0.06
28103 H 71.0628687479911 77.0538755326979 52.51596242444092 H 0.0 **** 0.06
28104 H 72.04665405450558 75.75971881489743 51.791117520164136 H 0.0 **** 0.06
28105 H 72.05999725364137 76.00728709438465 53.55389238367873 H 0.0 **** 0.06
28106 C 9.102706111256756 109.51349909240068 34.41752276183789 C 0.0 **** -0.24
28107 H 8.796047132731212 109.34598172180304 35.45004149675705 H 0.0 **** 0.06
28108 H 8.773421018715867 108.67688551400715 33.80124783760765 H 0.0 **** 0.06
28109 H 10.189238925034601 109.59454312036601 34.37016132857511 H 0.0 **** 0.06
28110 H 8.65297714423577 110.4352791008788 34.049383967754125 H 0.0 **** 0.06
28111 C 43.83586700050454 96.56119143469024 89.53515407947782 C 0.0 **** -0.24
28112 H 44.5203749022069 95.73427983039494 89.72537995561078 H 0.0 **** 0.06
28113 H 43.83811102601714 96.79592107087808 88.47097051060999 H 0.0 **** 0.06
28114 H 44.1553555857062 97.4352318091041 90.10175283245508 H 0.0 **** 0.06
28115 H 42.829389769277796 96.27651782613151 89.8426508695321 H 0.0 **** 0.06
28116 C 38.74822098049174 21.77488677451032 76.80949057402134 C 0.0 **** -0.24
28117 H 39.00578835541077 22.267205676525634 75.87193371748464 H 0.0 **** 0.06
28118 H 39.65367212944187 21.60641898148623 77.39310824688371 H 0.0 **** 0.06
28119 H 38.26814124839831 20.82002178569246 76.59839824718614 H 0.0 **** 0.06
28120 H 38.06407844934051 22.407616417311345 77.37578994516856 H 0.0 **** 0.06
28121 C 42.718897119192206 6.372285365330754 19.087636194665265 C 0.0 **** -0.24
28122 H 42.65500573982311 6.244258837686004 20.168005025151658 H 0.0 **** 0.06
28123 H 43.560632312273725 5.7953679742317945 18.70359979375492 H 0.0 **** 0.06
28124 H 42.86523072606806 7.427318800685214 18.8553116872757 H 0.0 **** 0.06
28125 H 41.79688475982721 6.022281750734805 18.62477082768838 H 0.0 **** 0.06
28126 C 110.43562095887106 29.722931293087385 33.376735096874995 C 0.0 **** -0.24
28127 H 111.19656407149472 29.304236694493497 34.03509527786579 H 0.0 **** 0.06
28128 H 109.78095967631745 28.92460863953326 33.023730282585376 H 0.0 **** 0.06
28129 H 110.91741367903131 30.201064178942588 32.52361231981712 H 0.0 **** 0.06
28130 H 109.84812411713105 30.46017789960716 33.922774995295526 H 0.0 **** 0.06
28131 C 93.43689151611699 63.70629743477775 18.922654538805176 C 0.0 **** -0.24
28132 H 93.6220257696578 63.03534241385739 19.761159381878784 H 0.0 **** 0.06
28133 H 93.61169926946161 64.73600553363258 19.235136910114036 H 0.0 **** 0.06
28134 H 92.40468216674262 63.5967237024434 18.589513119455134 H 0.0 **** 0.06
28135 H 94.11133045808702 63.45661066276091 18.10235370259663 H 0.0 **** 0.06
28136 C 75.80663150194471 46.27898205539486 26.15817670025618 C 0.0 **** -0.24
28137 H 75.94876193266009 45.262387779056894 25.79120427432909 H 0.0 **** 0.06
28138 H 75.59265299551308 46.251350595442545 27.2271479303039 H 0.0 **** 0.06
28139 H 74.9722153858155 46.741260071917054 25.63203846223285 H 0.0 **** 0.06
28140 H 76.71340178572851 46.85833631838216 25.98332522042666 H 0.0 **** 0.06
28141 C 30.925369846164813 39.695273407887925 38.485562540940634 C 0.0 **** -0.24
28142 H 30.076805722566974 39.06119798484451 38.226301900908 H 0.0 **** 0.06
28143 H 31.81784342498065 39.078885635934796 38.597624142956846 H 0.0 **** 0.06
28144 H 30.720071090009924 40.211729417317 39.4227430446511 H 0.0 **** 0.06
28145 H 31.08622195142783 40.42755520559402 37.694723952941416 H 0.0 **** 0.06
28146 C 104.51529846257432 82.5620477796201 81.20257042017056 C 0.0 **** -0.24
28147 H 103.98182148229122 83.09822478438201 81.9878508129904 H 0.0 **** 0.06
28148 H 104.55360007529875 81.50159057586953 81.44953435118792 H 0.0 **** 0.06
28149 H 105.52858521571079 82.95392508811003 81.12006700428316 H 0.0 **** 0.06
28150 H 103.99517124397639 82.69612930224554 80.25388734663004 H 0.0 **** 0.06
28151 C 19.286879878403496 74.69108316288526 66.64813318243276 C 0.0 **** -0.24
28152 H 19.30415703955026 73.60689421586056 66.75709434624393 H 0.0 **** 0.06
28153 H 18.664385111997575 74.96007701917028 65.79505154631201 H 0.0 **** 0.06
28154 H 20.301838697092663 75.05630877258449 66.48785642697197 H 0.0 **** 0.06
28155 H 18.877757718931747 75.14038343087293 67.55294147755033 H 0.0 **** 0.06
28156 C 70.50493947909251 69.53008036621071 10.876493838906697 C 0.0 **** -0.24
28157 H 69.53326437185933 69.42250678450392 11.358659938531147 H 0.0 **** 0.06
28158 H 70.55502901063667 70.49648459619029 10.372979460838252 H 0.0 **** 0.06
28159 H 70.63946168564155 68.7320861740341 10.146566612412855 H 0.0 **** 0.06
28160 H 71.29200004190398 69.47121354972805 11.629225645180867 H 0.0 **** 0.06
28161 C 60.146467311433526 84.53022689414979 36.289438478508515 C 0.0 **** -0.24
28162 H 60.15374734951922 84.0220190103795 35.32513537001833 H 0.0 **** 0.06
28163 H 61.05954260496185 85.11633973531127 36.39696992745053 H 0.0 **** 0.06
28164 H 60.09106822606702 83.79195310951482 37.08876096556233 H 0.0 **** 0.06
28165 H 59.28169179274255 85.19082199334667 36.34517993633531 H 0.0 **** 0.06
28166 C 104.16458481966617 52.62142761075938 60.4278387182909 C 0.0 **** -0.24
28167 H 103.20270688247564 52.330409262947626 60.00527522604767 H 0.0 **** 0.06
28168 H 104.60441550863612 53.4114213100346 59.81803160333425 H 0.0 **** 0.06
28169 H 104.83108303642155 51.75905584676855 60.44193834872843 H 0.0 **** 0.06
28170 H 104.0185825616889 52.98518815581804 61.44454088660379 H 0.0 **** 0.06
28171 C 53.88155082448688 32.09246617363863 65.734076158327 C 0.0 **** -0.24
28172 H 54.8006502395728 32.27304610549564 65.17830660970532 H 0.0 **** 0.06
28173 H 53.817121205475985 31.036239199974133 65.99584159797396 H 0.0 **** 0.06
28174 H 53.024555071439465 32.368643614979476 65.11976350861495 H 0.0 **** 0.06
28175 H 53.8833813736785 32.69332385103088 66.6443494740004 H 0.0 **** 0.06
28176 C 70.40086703136724 77.81933233887466 31.519816330143215 C 0.0 **** -0.24
28177 H 70.16344649119351 76.8129709022287 31.173628632899835 H 0.0 **** 0.06
28178 H 70.86796759754958 78.38114352370144 30.710762562122895 H 0.0 **** 0.06
28179 H 71.08615669280728 77.76020805452993 32.36484478224732 H 0.0 **** 0.06
28180 H 69.48448765531768 78.32219042062786 31.829440844300038 H 0.0 **** 0.06
28181 C 105.37119572300486 8.339053697225523 41.06842168576475 C 0.0 **** -0.24
28182 H 104.54620212074087 8.266945944298072 41.777197929552386 H 0.0 **** 0.06
28183 H 105.13716865280406 7.754491743701848 40.17846921258936 H 0.0 **** 0.06
28184 H 106.28043727075683 7.952279528402741 41.52849371907621 H 0.0 **** 0.06
28185 H 105.52026575871864 9.3818378381455 40.78977486708325 H 0.0 **** 0.06
28186 C 99.28799354428634 59.357528967247305 97.77905208348893 C 0.0 **** -0.24
28187 H 100.21906386411757 59.765209088331545 97.38700024420525 H 0.0 **** 0.06
28188 H 98.49317383502066 60.0944489838526 97.66916492117785 H 0.0 **** 0.06
28189 H 99.41515745917195 59.11349178819992 98.83405869911842 H 0.0 **** 0.06
28190 H 99.02605936806668 58.455068309438104 97.22644010712676 H 0.0 **** 0.06
28191 C 77.3761609050743 15.934497851074681 7.733118472786998 C 0.0 **** -0.24
28192 H 76.2891149212202 16.015720893748494 7.757421065836155 H 0.0 **** 0.06
28193 H 77.6903320864991 15.07839798931441 8.332010229956182 H 0.0 **** 0.06
28194 H 77.81816596652777 16.84417245989377 8.139138601240575 H 0.0 **** 0.06
28195 H 77.70786256141685 15.79826085633728 6.703417417697892 H 0.0 **** 0.06
28196 C 81.60937031633702 36.062395965481514 41.19498013936362 C 0.0 **** -0.24
28197 H 81.70993773587603 37.12812221493257 41.399900796912846 H 0.0 **** 0.06
28198 H 82.44182922053614 35.7316258584183 40.573760330161406 H 0.0 **** 0.06
28199 H 80.67082056602081 35.88167250595331 40.67087696718772 H 0.0 **** 0.06
28200 H 81.61267267966878 35.509769919076255 42.13416342674708 H 0.0 **** 0.06
28201 C 37.926662891682525 54.929102976637324 81.28534816532908 C 0.0 **** -0.24
28202 H 37.730610566208384 55.70950580918662 82.02192180869304 H 0.0 **** 0.06
28203 H 36.98889654888839 54.44614326935135 81.0099757656372 H 0.0 **** 0.06
28204 H 38.60556243588147 54.19111862412606 81.71101372236387 H 0.0 **** 0.06
28205 H 38.38074756570853 55.37372026562409 80.39978150657623 H 0.0 **** 0.06
28206 C 23.945920319827508 103.67507986131588 29.01950904192978 C 0.0 **** -0.24
28207 H 22.925836323826104 104.05834267844286 29.041936234504192 H 0.0 **** 0.06
28208 H 24.64542656701809 104.50942336200147 28.95951144356073 H 0.0 **** 0.06
28209 H 24.073155173592113 103.03158502501962 28.149269768108468 H 0.0 **** 0.06
28210 H 24.13899908154508 103.1033504812038 29.926812630497437 H 0.0 **** 0.06
28211 C 110.26771922125027 33.2282448656963 47.25503878161692 C 0.0 **** -0.24
28212 H 110.11329853555624 34.12615498976493 46.65533179076772 H 0.0 **** 0.06
28213 H 111.28832204348514 33.219103419855315 47.637721480304776 H 0.0 **** 0.06
28214 H 110.10332736650079 32.34637381755016 46.63604888459622 H 0.0 **** 0.06
28215 H 109.56600367354413 33.22387543926655 48.08829556168965 H 0.0 **** 0.06
28216 C 80.30601098411347 24.1826668283459 26.72309527622565 C 0.0 **** -0.24
28217 H 81.16697799785607 23.635478845895364 27.106687287061675 H 0.0 **** 0.06
28218 H 80.29992460606479 24.131623866661158 25.633638816786004 H 0.0 **** 0.06
28219 H 80.36703619971803 25.224343115093745 27.038117761090092 H 0.0 **** 0.06
28220 H 79.39000238546004 23.7380247369816 27.113190690595445 H 0.0 **** 0.06
28221 C 32.71258635246562 71.57782391764579 98.4237350133572 C 0.0 **** -0.24
28222 H 33.745668842454165 71.32029733779032 98.65797074630001 H 0.0 **** 0.06
28223 H 32.04252611210376 71.03348642619419 99.08983841784789 H 0.0 **** 0.06
28224 H 32.49719645972044 71.3066541186346 97.39017472507115 H 0.0 **** 0.06
28225 H 32.56630187059534 72.64907409559149 98.55700004883604 H 0.0 **** 0.06
28226 C 99.37583732824527 84.16265418111112 36.97020828339795 C 0.0 **** -0.24
28227 H 100.16802494013037 84.69839137852219 36.44636744972263 H 0.0 **** 0.06
28228 H 99.55898493337926 83.08940079116712 36.90513966360608 H 0.0 **** 0.06
28229 H 98.41520379193477 84.39571066923497 36.51082432936657 H 0.0 **** 0.06
28230 H 99.3619185166682 84.46647387562149 38.01650725999026 H 0.0 **** 0.06
28231 C 19.02128273321641 80.57158195290248 0.5858443674184475 C 0.0 **** -0.24
28232 H 19.095374548175826 80.07699515212829 1.5538686360677714 H 0.0 **** 0.06
28233 H 18.185050041705665 80.15223984524482 0.026901806518075944 H 0.0 **** 0.06
28234 H 19.945178471780622 80.41803782600238 0.027707622559717926 H 0.0 **** 0.06
28235 H 18.860308202710456 81.63929597435538 0.7343222921421484 H 0.0 **** 0.06
28236 C 55.71958825793995 10.221267014400908 104.90052731739397 C 0.0 **** -0.24
28237 H 56.490485794407064 10.339958067107332 104.13889474733845 H 0.0 **** 0.06
28238 H 55.83154612297436 9.2500864751144 105.38188736426895 H 0.0 **** 0.06
28239 H 54.73654819698872 10.284286595277209 104.43427043081287 H 0.0 **** 0.06
28240 H 55.82059532313848 11.010429155577839 105.64525974888888 H 0.0 **** 0.06
28241 C 92.95356978180568 60.29882384278375 53.28922798143294 C 0.0 **** -0.24
28242 H 92.19764659041302 59.53643520353472 53.4757685684994 H 0.0 **** 0.06
28243 H 93.9344118778155 59.82760397782579 53.213998754278656 H 0.0 **** 0.06
28244 H 92.95770721809592 61.0153035558626 54.11095084140242 H 0.0 **** 0.06
28245 H 92.72528154286361 60.81591035098381 52.35738049323126 H 0.0 **** 0.06
28246 C 97.95115348325976 51.040372581078714 81.50108023682756 C 0.0 **** -0.24
28247 H 97.69695027703267 52.029145272107144 81.11808797710431 H 0.0 **** 0.06
28248 H 99.03042315425695 50.97110689769676 81.63897875391605 H 0.0 **** 0.06
28249 H 97.62563200641421 50.281640034109955 80.79029942741414 H 0.0 **** 0.06
28250 H 97.45168502549109 50.88202231464277 82.45729790267538 H 0.0 **** 0.06
28251 C 99.74122958955977 18.035415636898293 6.259006185451867 C 0.0 **** -0.24
28252 H 99.75747427658564 18.924587637495602 6.889389405318527 H 0.0 **** 0.06
28253 H 100.7557415105054 17.656312685642497 6.139761899864009 H 0.0 **** 0.06
28254 H 99.32978183213916 18.290776258324307 5.2825516700523 H 0.0 **** 0.06
28255 H 99.11938855434738 17.27152615168341 6.726605748443658 H 0.0 **** 0.06
28256 C 40.78522845492989 46.89596129327719 48.50669586075921 C 0.0 **** -0.24
28257 H 40.61910974343212 45.958819278575504 47.97581157209956 H 0.0 **** 0.06
28258 H 40.30705507469497 47.71029756666741 47.962439138849135 H 0.0 **** 0.06
28259 H 41.855996460697696 47.0858543335364 48.58016856182638 H 0.0 **** 0.06
28260 H 40.35818025523781 46.82653056109413 49.50793859833598 H 0.0 **** 0.06
28261 C 53.37628391483008 103.60409535999494 18.05041512381254 C 0.0 **** -0.24
28262 H 53.70415399780734 103.14890176366782 17.116028847155007 H 0.0 **** 0.06
28263 H 53.31007700132062 102.83865269587707 18.823670521288875 H 0.0 **** 0.06
28264 H 52.39704459838316 104.06069687367764 17.907404153075674 H 0.0 **** 0.06
28265 H 54.091946645457256 104.36751148466766 18.353579018740618 H 0.0 **** 0.06
28266 C 17.85527977547079 106.12872567380342 53.27324819804741 C 0.0 **** -0.24
28267 H 18.33185217255442 106.76310168627414 52.52624583527643 H 0.0 **** 0.06
28268 H 18.155125556374003 106.45358007695876 54.27023562150643 H 0.0 **** 0.06
28269 H 18.16197844714003 105.0944934131393 53.1203422262582 H 0.0 **** 0.06
28270 H 16.772260709630928 106.20448373227116 53.17681612526232 H 0.0 **** 0.06
28271 C 85.89042548891621 87.5482820833571 59.694311170650195 C 0.0 **** -0.24
28272 H 86.9543223043777 87.56201833271376 59.454476461191064 H 0.0 **** 0.06
28273 H 85.31896732065553 87.8914971168893 58.83117456617714 H 0.0 **** 0.06
28274 H 85.70099283912 88.20599718283728 60.54165157939781 H 0.0 **** 0.06
28275 H 85.59017537417343 86.53155805344949 59.94846833866501 H 0.0 **** 0.06
28276 C 39.238163673666804 9.357690398299617 58.749816394990944 C 0.0 **** -0.24
28277 H 38.44773093182732 8.964742017935196 58.1103882280471 H 0.0 **** 0.06
28278 H 39.771141780713265 10.148784930222646 58.221879337703 H 0.0 **** 0.06
28279 H 39.93386789514716 8.556979103272862 59.00218681080787 H 0.0 **** 0.06
28280 H 38.80080860297545 9.760570589546896 59.6627861509578 H 0.0 **** 0.06
28281 C 68.56622209967031 102.81466464036464 14.447128243180885 C 0.0 **** -0.24
28282 H 67.84483439564214 103.63183000746085 14.418714891916181 H 0.0 **** 0.06
28283 H 69.2206327528401 102.93769978230273 15.309440092715349 H 0.0 **** 0.06
28284 H 69.16124833096505 102.82450776711437 13.533393228480875 H 0.0 **** 0.06
28285 H 68.0357424010376 101.86491209749653 14.524962673452734 H 0.0 **** 0.06
28286 C 8.562658708789314 66.72515358345606 30.931034331483552 C 0.0 **** -0.24
28287 H 9.526749478613638 66.86015616363017 31.421752216516907 H 0.0 **** 0.06
28288 H 8.514787564721374 65.72760350764804 30.493100562556897 H 0.0 **** 0.06
28289 H 8.446274792070213 67.4727107213169 30.14617520027734 H 0.0 **** 0.06
28290 H 7.762822999752018 66.8401439412292 31.66310934658307 H 0.0 **** 0.06
28291 C 2.653282857883397 66.38209053999529 103.80251079836698 C 0.0 **** -0.24
28292 H 3.5479215771372594 65.99688638375744 104.2919033402181 H 0.0 **** 0.06
28293 H 2.631306540578038 67.46891912370694 103.88870507589822 H 0.0 **** 0.06
28294 H 1.7684918339267597 65.96235977439295 104.28081472381028 H 0.0 **** 0.06
28295 H 2.666079506805602 66.10057912659872 102.74980653013255 H 0.0 **** 0.06
28296 C 90.92026766278661 99.33340475186753 67.94074622296272 C 0.0 **** -0.24
28297 H 91.85524303604875 98.77948397695553 67.85371414616617 H 0.0 **** 0.06
28298 H 91.01438653032208 100.28723806722587 67.42164567582753 H 0.0 **** 0.06
28299 H 90.70116729546731 99.51352506156678 68.99362346173142 H 0.0 **** 0.06
28300 H 90.11215191364971 98.75387136890737 67.49510769712626 H 0.0 **** 0.06
28301 C 53.484190256332425 38.78746532341273 2.9650182974133372 C 0.0 **** -0.24
28302 H 54.509929117404084 39.133773162211085 3.0949276652488322 H 0.0 **** 0.06
28303 H 52.926242039327605 38.949151716672304 3.8873918850406852 H 0.0 **** 0.06
28304 H 53.48769484182003 37.724603387052184 2.7236017544364586 H 0.0 **** 0.06
28305 H 53.01381274798328 39.34224947125617 2.153079081747933 H 0.0 **** 0.06
28306 C 90.15867024328207 55.17222039544902 67.2731316366947 C 0.0 **** -0.24
28307 H 90.38866245721329 56.132114284165425 67.73527557965718 H 0.0 **** 0.06
28308 H 90.61791359958357 54.37150607995392 67.85319014858325 H 0.0 **** 0.06
28309 H 90.55112543928743 55.15614565503097 66.25620721996982 H 0.0 **** 0.06
28310 H 89.07807100626025 55.03090042905865 67.2486429446562 H 0.0 **** 0.06
28311 C 101.00485050083493 4.481217861182358 91.39589490613804 C 0.0 **** -0.24
28312 H 100.21150591381199 4.269880214812986 90.67942755784912 H 0.0 **** 0.06
28313 H 101.83622372499724 3.7962161262036886 91.22945898042227 H 0.0 **** 0.06
28314 H 100.62361182972556 4.351895675935765 92.4089169141902 H 0.0 **** 0.06
28315 H 101.34805832356639 5.5075332777644235 91.2645221482233 H 0.0 **** 0.06
28316 C 77.93585707724884 100.99082294275334 56.37782978895979 C 0.0 **** -0.24
28317 H 78.39010510415216 101.43588339259179 55.4920619281811 H 0.0 **** 0.06
28318 H 76.84962909042969 101.0403158177329 56.292307711098715 H 0.0 **** 0.06
28319 H 78.25572089117429 101.53901399776527 57.26341907799872 H 0.0 **** 0.06
28320 H 78.24628893046082 99.94992243509881 56.46112962691325 H 0.0 **** 0.06
28321 C 38.1322729376555 80.68447015124407 71.31276580321297 C 0.0 **** -0.24
28322 H 37.58575116816667 79.7528801464279 71.46256164608036 H 0.0 **** 0.06
28323 H 38.76119044885735 80.59676965005858 70.42683571686895 H 0.0 **** 0.06
28324 H 38.75746404757899 80.88273986884046 72.18456396376108 H 0.0 **** 0.06
28325 H 37.42624199190374 81.50357697446782 71.1784861897147 H 0.0 **** 0.06
28326 C 42.98024224858477 43.08897428304317 26.820287393554544 C 0.0 **** -0.24
28327 H 42.163799611035586 43.7096357629562 26.449986813058878 H 0.0 **** 0.06
28328 H 43.00733305993231 42.15338611678641 26.260135012746915 H 0.0 **** 0.06
28329 H 42.824022995796554 42.875573649632145 27.877351444403743 H 0.0 **** 0.06
28330 H 43.925121522482755 43.616387452184426 26.69151157861355 H 0.0 **** 0.06
28331 C 91.93274820925564 110.61201243220152 95.08677309453037 C 0.0 **** -0.24
28332 H 91.88537093510739 110.47991608022397 94.00576491323326 H 0.0 **** 0.06
28333 H 92.71196772198924 109.9692485734677 95.49664541097508 H 0.0 **** 0.06
28334 H 90.97227767123128 110.34658831600498 95.52723314766413 H 0.0 **** 0.06
28335 H 92.16245398476244 111.65275173823652 95.31554304930131 H 0.0 **** 0.06
28336 C 36.18160886653325 16.5322425629154 70.83291607025443 C 0.0 **** -0.24
28337 H 35.40585710900982 17.08963240111072 71.35705199252806 H 0.0 **** 0.06
28338 H 37.023444652276844 17.191272688454944 70.62234661067485 H 0.0 **** 0.06
28339 H 35.77936332719784 16.144823134020186 69.89588643606587 H 0.0 **** 0.06
28340 H 36.515428989313826 15.701539632431121 71.45476050681489 H 0.0 **** 0.06
28341 C 75.78083783069872 89.20953534620853 76.78799640384668 C 0.0 **** -0.24
28342 H 76.23737070512311 89.07788056465392 75.80783549725732 H 0.0 **** 0.06
28343 H 75.4253316701629 90.23496326458942 76.8888412525435 H 0.0 **** 0.06
28344 H 76.5189075240313 89.00303065584842 77.56288069137912 H 0.0 **** 0.06
28345 H 74.94163781206532 88.52148640500855 76.89360299044787 H 0.0 **** 0.06
28346 C 68.35554754774398 32.63702561184991 87.91594332057402 C 0.0 **** -0.24
28347 H 68.40643654744315 33.04877486350932 88.92308507462718 H 0.0 **** 0.06
28348 H 67.31748122659428 32.612741921996474 87.58560060970674 H 0.0 **** 0.06
28349 H 68.7612110315003 31.624827766740253 87.91527801935057 H 0.0 **** 0.06
28350 H 68.9380611176964 33.262003763656026 87.23782455078343 H 0.0 **** 0.06
28351 C 91.03148890725377 80.02292135182282 80.19836148150087 C 0.0 **** -0.24
28352 H 90.5336103856455 79.97464135245924 81.16665933686251 H 0.0 **** 0.06
28353 H 91.84146314829091 80.75082961257023 80.24163974912206 H 0.0 **** 0.06
28354 H 90.31274663287152 80.32372861562563 79.4353160531412 H 0.0 **** 0.06
28355 H 91.43678911043096 79.04235568930552 79.94874886636201 H 0.0 **** 0.06
28356 C 54.009590760627496 100.24888536436646 46.2997880331061 C 0.0 **** -0.24
28357 H 54.96891382537725 100.72256514471762 46.50724510158446 H 0.0 **** 0.06
28358 H 54.15865050025845 99.18051423599908 46.14147793297971 H 0.0 **** 0.06
28359 H 53.57291409818551 100.69152862066714 45.40478348043621 H 0.0 **** 0.06
28360 H 53.33851492683993 100.40155460410686 47.14454244594128 H 0.0 **** 0.06
28361 C 64.80299905937346 14.086166958571027 96.53275229176921 C 0.0 **** -0.24
28362 H 64.90321111383182 14.862624880986232 97.29079407373325 H 0.0 **** 0.06
28363 H 65.7020392565077 14.062109839664117 95.917303116792 H 0.0 **** 0.06
28364 H 63.93776767335294 14.299746332242307 95.90538619621073 H 0.0 **** 0.06
28365 H 64.66937357208394 13.11955486564375 97.01872763684516 H 0.0 **** 0.06
28366 C 73.43671034907561 11.44129456619494 33.43755012760613 C 0.0 **** -0.24
28367 H 73.77511970817244 10.45819706780388 33.76421069504403 H 0.0 **** 0.06
28368 H 74.30059494376633 12.059239989559075 33.19248565042852 H 0.0 **** 0.06
28369 H 72.86776183711834 11.913150493933372 34.23765901185712 H 0.0 **** 0.06
28370 H 72.80451095505111 11.3329726209451 32.55610697760342 H 0.0 **** 0.06
28371 C 9.438013302376334 69.1992224978124 86.73007757210752 C 0.0 **** -0.24
28372 H 8.605894350473434 69.87178093725612 86.93506015781323 H 0.0 **** 0.06
28373 H 10.256831659482401 69.76123419953649 86.28042315208238 H 0.0 **** 0.06
28374 H 9.11218862335619 68.41884477548848 86.04259913281253 H 0.0 **** 0.06
28375 H 9.77649713028515 68.74540032354702 87.66155589603889 H 0.0 **** 0.06
28376 C 83.39153041317542 47.474656440285045 42.87144740731691 C 0.0 **** -0.24
28377 H 83.50253334257272 46.49571013461764 42.40436684870792 H 0.0 **** 0.06
28378 H 82.71186001668997 48.08635985190509 42.277380182407796 H 0.0 **** 0.06
28379 H 84.36426902095387 47.96195220663016 42.92793728952711 H 0.0 **** 0.06
28380 H 82.98648339706621 47.35268330019879 43.87670571696526 H 0.0 **** 0.06
28381 C 85.6340568932413 3.835903871210874 25.484060559894175 C 0.0 **** -0.24
28382 H 86.57470384444326 3.321814182079251 25.68374250827904 H 0.0 **** 0.06
28383 H 84.86420501710211 3.1033883573504966 25.242127043272205 H 0.0 **** 0.06
28384 H 85.76496731056328 4.518831481321627 24.644083105789704 H 0.0 **** 0.06
28385 H 85.3352237913441 4.399895350597532 26.367574631231918 H 0.0 **** 0.06
28386 C 93.54422206705203 72.06890378111262 17.726921616088607 C 0.0 **** -0.24
28387 H 94.54450126825941 72.11730821450669 18.15910600011306 H 0.0 **** 0.06
28388 H 93.58103593331282 72.39584940469317 16.68860858921302 H 0.0 **** 0.06
28389 H 92.87385382700018 72.71949631148556 18.289639640444243 H 0.0 **** 0.06
28390 H 93.17868540735617 71.04332747570567 17.77340707572844 H 0.0 **** 0.06
28391 C 54.9992353829806 78.77651311854626 105.32299159624775 C 0.0 **** -0.24
28392 H 55.81922208396827 79.27823064509101 105.83708310554836 H 0.0 **** 0.06
28393 H 55.01661378148759 77.71296556047366 105.5635937080773 H 0.0 **** 0.06
28394 H 55.11170384150978 78.90745797215827 104.24624971606521 H 0.0 **** 0.06
28395 H 54.05076050513276 79.20746559075644 105.64465312514542 H 0.0 **** 0.06
28396 C 50.92911023061271 81.16293072058629 11.900176609555444 C 0.0 **** -0.24
28397 H 51.62662490565984 80.44415453048659 11.467925647540369 H 0.0 **** 0.06
28398 H 50.071061882255165 80.63279056740085 12.31438213802798 H 0.0 **** 0.06
28399 H 50.59225493726899 81.85170570524944 11.125028046007742 H 0.0 **** 0.06
28400 H 51.42853938439285 81.72181417091504 12.691566235366395 H 0.0 **** 0.06
28401 C 104.28623144929911 77.83897570913443 98.18532762477126 C 0.0 **** -0.24
28402 H 103.98290427368518 78.44978565883575 99.03478656431977 H 0.0 **** 0.06
28403 H 105.37394720814984 77.7663381900892 98.16036771842421 H 0.0 **** 0.06
28404 H 103.93149963923084 78.29856663698183 97.26308837833551 H 0.0 **** 0.06
28405 H 103.85692523189448 76.84257642152642 98.28319637517424 H 0.0 **** 0.06
28406 C 91.1678859584069 110.34554152595692 85.54044366063266 C 0.0 **** -0.24
28407 H 91.35722208736672 111.381514155403 85.8215953539646 H 0.0 **** 0.06
28408 H 90.84519787487937 109.78395011338463 86.41762110026832 H 0.0 **** 0.06
28409 H 92.08181236412028 109.90420736353462 85.14156966317012 H 0.0 **** 0.06
28410 H 90.38744131755975 110.31259613054165 84.7795839201006 H 0.0 **** 0.06
28411 C 20.36558124337469 7.416609622235718 87.28928102570615 C 0.0 **** -0.24
28412 H 21.35945725141193 7.097598978887207 86.97660966059993 H 0.0 **** 0.06
28413 H 20.04137363730805 8.252458847082378 86.6702122267171 H 0.0 **** 0.06
28414 H 20.395712685574235 7.7278774424735595 88.33330073599888 H 0.0 **** 0.06
28415 H 19.666524383657954 6.58783695913489 87.17693729093102 H 0.0 **** 0.06
28416 C 36.551534926340764 109.57315261274317 98.97065538547193 C 0.0 **** -0.24
28417 H 35.81650156338867 110.31076289682113 99.29272331985145 H 0.0 **** 0.06
28418 H 36.60547416831861 109.56644659070224 97.8822536707586 H 0.0 **** 0.06
28419 H 36.25572216971443 108.58710032185076 99.32751863214332 H 0.0 **** 0.06
28420 H 37.528096818580934 109.83058499852575 99.38175782009675 H 0.0 **** 0.06
28421 C 15.461247824390192 78.06621749312 109.83841184530132 C 0.0 **** -0.24
28422 H 16.100533758724747 77.35967479394246 110.36738502045637 H 0.0 **** 0.06
28423 H 14.645707386293324 77.52752605251253 109.35574108211557 H 0.0 **** 0.06
28424 H 16.04664983335794 78.59186564804364 109.08421609993053 H 0.0 **** 0.06
28425 H 15.05195349357712 78.78660058644667 110.54746412688547 H 0.0 **** 0.06
28426 C 57.262749402114714 62.862664139262904 104.7009575886471 C 0.0 **** -0.24
28427 H 57.17062127346327 62.003027031026434 105.36530028458438 H 0.0 **** 0.06
28428 H 56.2723786833872 63.166559910968374 104.36130636504501 H 0.0 **** 0.06
28429 H 57.87581365916746 62.59293801150383 103.84151258084609 H 0.0 **** 0.06
28430 H 57.732786389921905 63.68700742814647 105.23754785989078 H 0.0 **** 0.06
28431 C 30.90652397719583 24.023467740844293 47.27325350925806 C 0.0 **** -0.24
28432 H 30.35724866357367 23.107321938237895 47.059622617982804 H 0.0 **** 0.06
28433 H 31.462437226822942 24.32901478834562 46.38699046688319 H 0.0 **** 0.06
28434 H 31.601329717977592 23.847339709322725 48.094891306097175 H 0.0 **** 0.06
28435 H 30.205603654345822 24.809971903057015 47.5531457053158 H 0.0 **** 0.06
28436 C 37.06898677317258 79.81282340004509 85.45408695410573 C 0.0 **** -0.24
28437 H 36.6762401968696 78.99642891630083 84.84917139502943 H 0.0 **** 0.06
28438 H 37.50637165162283 79.41032267846703 86.36818126441678 H 0.0 **** 0.06
28439 H 36.260556742530724 80.49842714852184 85.70840000268383 H 0.0 **** 0.06
28440 H 37.83382850452452 80.3469106294902 84.89008101372403 H 0.0 **** 0.06
28441 C 37.22107061006926 24.610242515354454 107.45402185659489 C 0.0 **** -0.24
28442 H 38.09028224516666 24.10950388766441 107.02735840332984 H 0.0 **** 0.06
28443 H 36.41409943688464 23.88856407397261 107.5855457932975 H 0.0 **** 0.06
28444 H 36.89427610976409 25.40361702654326 106.78239180050407 H 0.0 **** 0.06
28445 H 37.48730980100285 25.03926373177538 108.42039148389217 H 0.0 **** 0.06
28446 C 23.583547185414147 93.5594982088524 42.332225164913325 C 0.0 **** -0.24
28447 H 23.411589181071577 94.36302450734462 43.048321289672685 H 0.0 **** 0.06
28448 H 22.7679565612101 93.53665906843742 41.60935100787549 H 0.0 **** 0.06
28449 H 23.628323902097378 92.6061505864285 42.859574320642594 H 0.0 **** 0.06
28450 H 24.526319097277394 93.73215867319914 41.81165404146287 H 0.0 **** 0.06
28451 C 60.07613778688507 25.952819312020516 99.57143886272182 C 0.0 **** -0.24
28452 H 60.30524816442018 26.253106777211038 98.54861060631477 H 0.0 **** 0.06
28453 H 60.3550833876466 26.754272973360393 100.25649300617056 H 0.0 **** 0.06
28454 H 60.63656941797288 25.051014545508675 99.81956649518045 H 0.0 **** 0.06
28455 H 59.00881440627205 25.752829353344367 99.6602842195696 H 0.0 **** 0.06
28456 C 5.700375136719728 51.192976585553396 56.20309612229326 C 0.0 **** -0.24
28457 H 5.303568712942308 52.204226754858624 56.11893887802239 H 0.0 **** 0.06
28458 H 5.670123973597569 50.876085700243614 57.24640281366425 H 0.0 **** 0.06
28459 H 6.7303032314074756 51.17537051681932 55.8471637408459 H 0.0 **** 0.06
28460 H 5.0965476949960475 50.51450244671141 55.60022962843584 H 0.0 **** 0.06
28461 C 92.02393860385797 87.67869925041646 40.256238554015965 C 0.0 **** -0.24
28462 H 92.19112708416375 88.72605084338846 40.005991965056126 H 0.0 **** 0.06
28463 H 91.18807212278122 87.29429806855944 39.67179293249069 H 0.0 **** 0.06
28464 H 91.7959710063677 87.591726376304 41.31837140972925 H 0.0 **** 0.06
28465 H 92.92123164815752 87.10339169467949 40.02916121170415 H 0.0 **** 0.06
28466 C 99.33542285970896 47.097398056250086 29.68178616367527 C 0.0 **** -0.24
28467 H 98.41140558733201 47.05592245410071 29.104712850617716 H 0.0 **** 0.06
28468 H 99.44792500785212 48.09151575712599 30.115050543141592 H 0.0 **** 0.06
28469 H 100.18119151059244 46.887403806704185 29.027114847813436 H 0.0 **** 0.06
28470 H 99.29846392645311 46.35515819443174 30.47903565161357 H 0.0 **** 0.06
28471 C 72.75326020233067 42.71209672554869 63.554693113207804 C 0.0 **** -0.24
28472 H 71.69311087079623 42.949266531323985 63.639041015029306 H 0.0 **** 0.06
28473 H 72.95990820513092 42.317209764683 62.55910298160103 H 0.0 **** 0.06
28474 H 73.01898765992405 41.96570532473747 64.30385702708611 H 0.0 **** 0.06
28475 H 73.34190786865918 43.61471230434434 63.716858905758215 H 0.0 **** 0.06
28476 C 10.87617438441913 86.20009510581548 56.765040597906136 C 0.0 **** -0.24
28477 H 11.122215778945701 87.2581862380539 56.86129330150584 H 0.0 **** 0.06
28478 H 9.811525855191661 86.05698035120673 56.949296936380335 H 0.0 **** 0.06
28479 H 11.451839475864688 85.6259621437338 57.490232101413426 H 0.0 **** 0.06
28480 H 11.118788912579618 85.8620287081782 55.758253149439895 H 0.0 **** 0.06
28481 C 10.375679220726155 8.310485786495406 43.99093412306729 C 0.0 **** -0.24
28482 H 10.039531183338852 9.312636837169578 44.25834118334254 H 0.0 **** 0.06
28483 H 10.277669996447443 8.169784615672029 42.91387694155088 H 0.0 **** 0.06
28484 H 9.765138612763963 7.572130182444141 44.510703205533105 H 0.0 **** 0.06
28485 H 11.419324043869864 8.188614269513323 44.28018579326468 H 0.0 **** 0.06
28486 C 81.78376431210812 61.04910608075966 84.76355269886639 C 0.0 **** -0.24
28487 H 81.18797708717057 60.256224287792406 84.31081789634587 H 0.0 **** 0.06
28488 H 82.7862173193142 61.03867455218119 84.33658566959704 H 0.0 **** 0.06
28489 H 81.84397644421612 60.88787457088313 85.83982247214843 H 0.0 **** 0.06
28490 H 81.31375466060294 62.01277787246005 84.56632857351667 H 0.0 **** 0.06
28491 C 69.28615268345932 35.26360205063375 109.64775349039567 C 0.0 **** -0.24
28492 H 68.49579835993198 34.5266360739742 109.78904717823295 H 0.0 **** 0.06
28493 H 70.19099373243985 34.92615329240829 110.15469709550567 H 0.0 **** 0.06
28494 H 68.96988137258732 36.21920649344125 110.06536373166443 H 0.0 **** 0.06
28495 H 69.48755129295806 35.38034495316225 108.58316183225114 H 0.0 **** 0.06
28496 C 55.226971987760976 18.45929125811955 79.62409048358815 C 0.0 **** -0.24
28497 H 54.2449166323463 18.93228614389767 79.63921870069905 H 0.0 **** 0.06
28498 H 55.426267557857784 18.06896047542773 78.62594675599082 H 0.0 **** 0.06
28499 H 55.24627956428736 17.641880195524863 80.34489704826404 H 0.0 **** 0.06
28500 H 55.988291153314975 19.193544452352825 79.88675393329027 H 0.0 **** 0.06
28501 C 5.296151246366772 21.377705633978167 57.80011545693159 C 0.0 **** -0.24
28502 H 4.632468953971706 22.18766007139834 57.49817285627941 H 0.0 **** 0.06
28503 H 5.212550481774015 20.555243948863847 57.09050967647383 H 0.0 **** 0.06
28504 H 5.016221809466419 21.030113315782387 58.79436130304916 H 0.0 **** 0.06
28505 H 6.3245008156483635 21.739466490531754 57.81839134913889 H 0.0 **** 0.06
28506 C 90.23165446999433 23.19073580593863 53.14953085416081 C 0.0 **** -0.24
28507 H 90.13651744057209 22.32787775928557 52.48990543180844 H 0.0 **** 0.06
28508 H 89.7112999939486 24.041868575073863 52.71080777659481 H 0.0 **** 0.06
28509 H 91.28629961094501 23.435260577381086 53.27765194442421 H 0.0 **** 0.06
28510 H 89.79289599378028 22.956613447862395 54.119451702005755 H 0.0 **** 0.06
28511 C 21.526215917724755 4.943001366477674 61.40466565362658 C 0.0 **** -0.24
28512 H 21.56962532836144 5.61940216089782 62.25796237268628 H 0.0 **** 0.06
28513 H 20.614244093278245 4.348301722630964 61.45925932344733 H 0.0 **** 0.06
28514 H 22.393037104742916 4.281244627175397 61.422325082771636 H 0.0 **** 0.06
28515 H 21.528623832518775 5.521706156683905 60.481509843261506 H 0.0 **** 0.06
28516 C 16.499312786695032 100.29137304305294 100.38284610315236 C 0.0 **** -0.24
28517 H 17.309751345773602 101.01305415384257 100.28604531349421 H 0.0 **** 0.06
28518 H 15.561985297155424 100.81959072521425 100.55794035503529 H 0.0 **** 0.06
28519 H 16.70364752048136 99.6258240092566 101.22092275871117 H 0.0 **** 0.06
28520 H 16.42130264404087 99.7080034900086 99.46516416680839 H 0.0 **** 0.06
28521 C 10.651444864915007 101.67944665244076 34.76466383615656 C 0.0 **** -0.24
28522 H 11.549279413614897 101.67315713819177 35.383426587757384 H 0.0 **** 0.06
28523 H 10.92410762436107 101.49337010432679 33.726257255301306 H 0.0 **** 0.06
28524 H 10.162840868888281 102.6512561914768 34.84474604394558 H 0.0 **** 0.06
28525 H 9.969616595005576 100.90047590594953 35.1066280806366 H 0.0 **** 0.06
28526 C 62.88107450202665 33.22573851107532 105.91224181316592 C 0.0 **** -0.24
28527 H 62.261162204677476 32.71116371168668 105.17878274966624 H 0.0 **** 0.06
28528 H 62.29740227669504 34.01247084346616 106.39319279271409 H 0.0 **** 0.06
28529 H 63.74416560060291 33.66738401516025 105.41406339242616 H 0.0 **** 0.06
28530 H 63.2207255215456 32.513519835479826 106.66459578745008 H 0.0 **** 0.06
28531 C 4.522051532385863 62.789847405723265 38.900153852874205 C 0.0 **** -0.24
28532 H 4.492210648917876 61.802014169385416 39.36080316729582 H 0.0 **** 0.06
28533 H 5.490522971823285 63.25059769252994 39.09323918681299 H 0.0 **** 0.06
28534 H 3.7322931335060137 63.41067383369827 39.32187164187876 H 0.0 **** 0.06
28535 H 4.373141282396563 62.69281080571824 37.82430841122796 H 0.0 **** 0.06
28536 C 43.105450193642795 23.200830912583754 52.47210124223653 C 0.0 **** -0.24
28537 H 42.095083994095546 23.536397116086846 52.24037047289778 H 0.0 **** 0.06
28538 H 43.08334141056028 22.571282238759437 53.36149788486614 H 0.0 **** 0.06
28539 H 43.74324545707728 24.065605198211557 52.65477954669876 H 0.0 **** 0.06
28540 H 43.50012991283796 22.630039097277248 51.63175706448328 H 0.0 **** 0.06
28541 C 102.7856213780634 92.84080862259448 109.90153946358882 C 0.0 **** -0.24
28542 H 102.89239473220951 93.27048237790365 110.89722747298109 H 0.0 **** 0.06
28543 H 103.74025883444277 92.42077290891609 109.58278858695002 H 0.0 **** 0.06
28544 H 102.47921542661993 93.61901349625674 109.2019507701421 H 0.0 **** 0.06
28545 H 102.031388024161 92.05431132029275 109.9234201440913 H 0.0 **** 0.06
28546 C 19.736776914626006 106.62394914122012 48.90228968977232 C 0.0 **** -0.24
28547 H 20.348864347904623 106.81442913367411 49.78335327047665 H 0.0 **** 0.06
28548 H 18.955773969570032 105.90526617228456 49.15036813965452 H 0.0 **** 0.06
28549 H 20.36174084260861 106.22015169289396 48.105849840506835 H 0.0 **** 0.06
28550 H 19.281122373525562 107.55648316649285 48.56798741977286 H 0.0 **** 0.06
28551 C 56.27515136518758 9.525473447507453 57.677563462007186 C 0.0 **** -0.24
28552 H 56.01804935925776 8.893234445728929 58.52693563758089 H 0.0 **** 0.06
28553 H 57.327632660795075 9.802232937521907 57.736018745133606 H 0.0 **** 0.06
28554 H 55.6607572944921 10.42607872941011 57.69553075501199 H 0.0 **** 0.06
28555 H 56.09386534567983 8.981011162243911 56.7510836138552 H 0.0 **** 0.06
28556 C 39.96000996815591 99.53675127124139 16.94264401816477 C 0.0 **** -0.24
28557 H 39.413894962365426 99.47518634628457 17.883895252628307 H 0.0 **** 0.06
28558 H 41.01898433832346 99.34799181980848 17.1234670466404 H 0.0 **** 0.06
28559 H 39.83668275911926 100.53244041033192 16.51647706057848 H 0.0 **** 0.06
28560 H 39.57111142306256 98.7934337024138 16.2473752945898 H 0.0 **** 0.06
28561 C 20.12549614189078 27.874257286084067 48.43036831295808 C 0.0 **** -0.24
28562 H 20.98597902316044 27.626097581741867 49.05350859840172 H 0.0 **** 0.06
28563 H 20.470985389006387 28.20653709473725 47.45134479506993 H 0.0 **** 0.06
28564 H 19.551990207557424 28.67037782476006 48.904457683809994 H 0.0 **** 0.06
28565 H 19.495529635178002 26.992635105306412 48.314362985797885 H 0.0 **** 0.06
28566 C 33.385634846632016 63.84898309243994 47.67469967245217 C 0.0 **** -0.24
28567 H 33.15561998869517 63.33011297840517 48.60571833134926 H 0.0 **** 0.06
28568 H 33.9010821130276 64.78261994460968 47.89771766556809 H 0.0 **** 0.06
28569 H 32.459863120363536 64.06320891398815 47.14046680891016 H 0.0 **** 0.06
28570 H 34.024782910904015 63.21862901035445 47.056210198686145 H 0.0 **** 0.06
28571 C 100.66289761845483 100.78201195785087 110.51663869826879 C 0.0 **** -0.24
28572 H 99.78123483701316 101.06224847002454 111.09406750629502 H 0.0 **** 0.06
28573 H 100.77293689795191 101.45971428296008 109.6703901424092 H 0.0 **** 0.06
28574 H 100.54937679543778 99.76110854114194 110.1533028755477 H 0.0 **** 0.06
28575 H 101.54645743155936 100.84511410274968 111.15170475863887 H 0.0 **** 0.06
28576 C 91.15235630775322 18.94681196492374 6.774445227754102 C 0.0 **** -0.24
28577 H 90.09512808681262 18.682280861405303 6.780809040604899 H 0.0 **** 0.06
28578 H 91.59737732405921 18.684847223269983 7.735676015974592 H 0.0 **** 0.06
28579 H 91.25738014271988 20.01842043303182 6.6053712503857 H 0.0 **** 0.06
28580 H 91.65872167277831 18.40154883890824 5.978975623553138 H 0.0 **** 0.06
28581 C 52.880384419811804 39.47053325232102 109.55709340191032 C 0.0 **** -0.24
28582 H 52.156023644868334 39.03371900015449 108.86951175787064 H 0.0 **** 0.06
28583 H 53.8349240862173 39.59977059968725 109.04508015913493 H 0.0 **** 0.06
28584 H 53.01315709193359 38.80993384028508 110.41300606739412 H 0.0 **** 0.06
28585 H 52.51675063381348 40.44013550482714 109.89843005672978 H 0.0 **** 0.06
28586 C 22.23863477406462 49.89405969860911 101.24386291988066 C 0.0 **** -0.24
28587 H 21.56098291420551 50.62246049081463 101.68928741242837 H 0.0 **** 0.06
28588 H 22.976731220569604 49.5841463436702 101.98385284935267 H 0.0 **** 0.06
28589 H 22.74556948489328 50.34419980850407 100.39080912770453 H 0.0 **** 0.06
28590 H 21.66985812340681 49.02523447318609 100.91141048621736 H 0.0 **** 0.06
28591 C 72.22376883153267 103.81159254515609 55.07034457063183 C 0.0 **** -0.24
28592 H 71.99164510062978 102.92705536959997 54.476510139301176 H 0.0 **** 0.06
28593 H 71.329125219302 104.13923055135868 55.59867856900679 H 0.0 **** 0.06
28594 H 72.5719311918951 104.60853214752143 54.41347703617738 H 0.0 **** 0.06
28595 H 73.00371442686004 103.56822508887296 55.791647466208765 H 0.0 **** 0.06
28596 C 10.608006576115883 101.32430599458829 58.71057961071544 C 0.0 **** -0.24
28597 H 11.216465519017504 102.02213028296347 58.13566771386346 H 0.0 **** 0.06
28598 H 9.805277571379946 100.9385269838009 58.08260397111238 H 0.0 **** 0.06
28599 H 10.180952458060403 101.83902751022703 59.57150138030089 H 0.0 **** 0.06
28600 H 11.229635148576477 100.49787455947774 59.05388514646505 H 0.0 **** 0.06
28601 C 94.09321193903668 79.47493190511454 20.812421547267775 C 0.0 **** -0.24
28602 H 94.01257082123685 80.49441230907979 21.190937727737918 H 0.0 **** 0.06
28603 H 94.71260153576546 78.8849417626916 21.48752810243957 H 0.0 **** 0.06
28604 H 94.54873056911633 79.49070904480608 19.821566026211627 H 0.0 **** 0.06
28605 H 93.09954391097078 79.03214243819798 20.748429038528258 H 0.0 **** 0.06
28606 C 41.37316426499092 72.34915505693469 110.09944422286048 C 0.0 **** -0.24
28607 H 41.503000303063175 71.77092893703157 109.18395148615248 H 0.0 **** 0.06
28608 H 42.23904605527926 72.20504098965549 110.74551278246163 H 0.0 **** 0.06
28609 H 40.47363665271763 72.01269381461874 110.615602796178 H 0.0 **** 0.06
28610 H 41.2757595813184 73.40594366727895 109.85037012996234 H 0.0 **** 0.06
28611 C 49.914708745211385 91.54038426497931 5.800581831068257 C 0.0 **** -0.24
28612 H 49.463760980682935 91.95720822443496 6.701273034673363 H 0.0 **** 0.06
28613 H 50.67605622256991 90.81171160137202 6.079551214100036 H 0.0 **** 0.06
28614 H 50.37340754047267 92.34193988739051 5.2204914963254225 H 0.0 **** 0.06
28615 H 49.14554578417312 91.05290616483983 5.201180300819686 H 0.0 **** 0.06
28616 C 0.3953787651076821 1.0396322476264146 46.77675462627573 C 0.0 **** -0.24
28617 H 0.786979325445385 1.6217588430597516 45.94183282103637 H 0.0 **** 0.06
28618 H -0.22097498276855898 1.6798026843101752 47.408067234628334 H 0.0 **** 0.06
28619 H 1.224403577483475 0.6402773737885354 47.36131881954893 H 0.0 **** 0.06
28620 H -0.20834492344616784 0.21720088345878708 46.39346742988269 H 0.0 **** 0.06
28621 C 41.65263467446544 95.4435931043235 29.435424514443156 C 0.0 **** -0.24
28622 H 42.01479576300624 94.41774155186408 29.365433896861276 H 0.0 **** 0.06
28623 H 41.75711868939816 95.79611860635339 30.461492050212712 H 0.0 **** 0.06
28624 H 40.60343364462248 95.47918813479893 29.142926819495273 H 0.0 **** 0.06
28625 H 42.23771065176176 96.08088854691835 28.770636979194933 H 0.0 **** 0.06
28626 C 40.13669056154873 28.49300271943241 68.46876376089853 C 0.0 **** -0.24
28627 H 40.22077991790337 27.958274535088492 69.41555758598804 H 0.0 **** 0.06
28628 H 40.6710826659525 29.441117041488724 68.53929114272518 H 0.0 **** 0.06
28629 H 39.086009682526424 28.682632410385338 68.25033762402029 H 0.0 **** 0.06
28630 H 40.57075233526757 27.88974245054783 67.67108200554594 H 0.0 **** 0.06
28631 C 43.29460270202529 106.98999817797892 2.2074381280666557 C 0.0 **** -0.24
28632 H 43.37237722953779 106.58647066228767 3.216309937816888 H 0.0 **** 0.06
28633 H 44.185420783237845 106.72030741148748 1.6390027015558672 H 0.0 **** 0.06
28634 H 43.209998344610824 108.0763053336879 2.2558496087658284 H 0.0 **** 0.06
28635 H 42.411899985204 106.57863315971483 1.7174172228772306 H 0.0 **** 0.06
28636 C 39.98180743764016 30.51920995588648 71.69967504492129 C 0.0 **** -0.24
28637 H 38.99901415794341 30.142304859436422 71.98317047672874 H 0.0 **** 0.06
28638 H 40.22906524617548 30.170543052562692 70.69650569418657 H 0.0 **** 0.06
28639 H 40.728848304975145 30.154483081132184 72.40550083124302 H 0.0 **** 0.06
28640 H 39.9703020414662 31.609508830414654 71.71352317752725 H 0.0 **** 0.06
28641 C 106.81496115039299 81.64756792562508 108.7162794748105 C 0.0 **** -0.24
28642 H 107.30853487550304 81.00023237754175 109.44148456435175 H 0.0 **** 0.06
28643 H 107.20230349885482 81.43612440569075 107.71840202974204 H 0.0 **** 0.06
28644 H 107.01042448525911 82.68979592940809 108.96779008002886 H 0.0 **** 0.06
28645 H 105.74111644663867 81.46330517600848 108.73573433263374 H 0.0 **** 0.06
28646 C 30.790687921692893 30.523833189462806 47.46381507102111 C 0.0 **** -0.24
28647 H 30.107347034762995 30.00352276030499 48.1352516216839 H 0.0 **** 0.06
28648 H 30.352698397315216 31.475595283378155 47.16617815637673 H 0.0 **** 0.06
28649 H 30.967219002307345 29.911309924976948 46.579737160573586 H 0.0 **** 0.06
28650 H 31.73665082336693 30.70347474229385 47.97646009869906 H 0.0 **** 0.06
28651 C 42.46938744105975 104.7218817997296 59.55558628249747 C 0.0 **** -0.24
28652 H 43.19535783513058 105.10822322900272 60.27115670556472 H 0.0 **** 0.06
28653 H 42.644430775281165 105.1751038129264 58.58030615586799 H 0.0 **** 0.06
28654 H 41.461795500049845 104.965055702801 59.89377365275243 H 0.0 **** 0.06
28655 H 42.576007457448554 103.63963051004406 59.47904825578888 H 0.0 **** 0.06
28656 C 76.23120635387733 5.547127511289375 67.16741305988424 C 0.0 **** -0.24
28657 H 75.8636617711646 6.4438868022732265 66.66933731515483 H 0.0 **** 0.06
28658 H 76.74987058233955 5.827246386731673 68.08478136805779 H 0.0 **** 0.06
28659 H 76.91998682854933 5.020450295640586 66.50677601326719 H 0.0 **** 0.06
28660 H 75.3905765271112 4.896330760043185 67.41021105648514 H 0.0 **** 0.06
28661 C 41.340761547947935 40.469681498743284 24.837006156857708 C 0.0 **** -0.24
28662 H 40.77107572967847 41.394489918191596 24.93170685201469 H 0.0 **** 0.06
28663 H 42.36481313337754 40.702414269487235 24.54311740987152 H 0.0 **** 0.06
28664 H 40.880534387436086 39.83492603405767 24.080574314095983 H 0.0 **** 0.06
28665 H 41.34644813370568 39.94798699584925 25.793959777937435 H 0.0 **** 0.06
28666 C 25.689901644176903 78.45984685590429 61.87967076138358 C 0.0 **** -0.24
28667 H 26.34419322007038 78.71693315199119 61.04681609906186 H 0.0 **** 0.06
28668 H 25.88238586624076 79.13514498755794 62.71386020750592 H 0.0 **** 0.06
28669 H 25.88400102192572 77.43342254266867 62.19100224849106 H 0.0 **** 0.06
28670 H 24.650731383973262 78.55528526514672 61.56737549700466 H 0.0 **** 0.06
28671 C 65.66493080070936 100.50381976070281 53.56241566681382 C 0.0 **** -0.24
28672 H 65.85326448058504 101.41373253093273 52.991969399895055 H 0.0 **** 0.06
28673 H 64.59080829864176 100.37500123804618 53.694976447830186 H 0.0 **** 0.06
28674 H 66.14665343768961 100.580311280107 54.53702998236972 H 0.0 **** 0.06
28675 H 66.06940864895186 99.64792037031977 53.022860670041666 H 0.0 **** 0.06
28676 C 59.93869381074758 108.78164176617102 28.98621335033043 C 0.0 **** -0.24
28677 H 59.78107418148754 108.21292394727439 29.90212261441063 H 0.0 **** 0.06
28678 H 60.22055457696831 108.10227589894903 28.18121378249534 H 0.0 **** 0.06
28679 H 60.73487571122368 109.50965686823508 29.1431373642216 H 0.0 **** 0.06
28680 H 59.0187155164959 109.3003884659784 28.718145277032924 H 0.0 **** 0.06
28681 C 99.03714327617315 56.45457006794487 39.3538531754499 C 0.0 **** -0.24
28682 H 98.9820531932294 55.37921121164209 39.52206175362775 H 0.0 **** 0.06
28683 H 99.8742736279198 56.86812931039992 39.91811850762531 H 0.0 **** 0.06
28684 H 98.1100343098185 56.922274460041365 39.68565931092388 H 0.0 **** 0.06
28685 H 99.18249492553615 56.64940652882348 38.291663764505984 H 0.0 **** 0.06
28686 C 81.77155068662785 20.43267194987746 28.930240669379742 C 0.0 **** -0.24
28687 H 82.65429003220459 20.49307802918952 29.566694970611458 H 0.0 **** 0.06
28688 H 81.83337524886167 21.193044970655762 28.150970252681297 H 0.0 **** 0.06
28689 H 80.87823942810837 20.600017902990345 29.531547606708358 H 0.0 **** 0.06
28690 H 81.72177264673581 19.445017609803074 28.47048329417123 H 0.0 **** 0.06
28691 C 40.785165836156864 95.36075191703515 63.38249918910071 C 0.0 **** -0.24
28692 H 40.312444640953174 94.99391729390754 62.47138681102024 H 0.0 **** 0.06
28693 H 41.28981061077944 94.53693683073249 63.88741115709087 H 0.0 **** 0.06
28694 H 40.02549143709193 95.7814028308589 64.04233963589229 H 0.0 **** 0.06
28695 H 41.5130999331477 96.13173350659702 63.12888314685409 H 0.0 **** 0.06
28696 C 52.8802343710058 43.15207624936241 2.792315445931365 C 0.0 **** -0.24
28697 H 53.2129657322283 43.44284889216573 1.7962397413722613 H 0.0 **** 0.06
28698 H 52.253735258212316 42.2626232850528 2.719954848881059 H 0.0 **** 0.06
28699 H 52.30731589182511 43.96516721259867 3.236378679243103 H 0.0 **** 0.06
28700 H 53.74760476294341 42.9364010411324 3.4157226229978477 H 0.0 **** 0.06
28701 C 1.4003176849053034 21.862796997656147 92.50497842578409 C 0.0 **** -0.24
28702 H 1.0833998676230294 21.174404667066057 91.72184829388846 H 0.0 **** 0.06
28703 H 1.9409823074606152 21.3117049319398 93.27504860399733 H 0.0 **** 0.06
28704 H 0.525446954987558 22.339972609146542 92.94514919983436 H 0.0 **** 0.06
28705 H 2.052399157429079 22.62336541996416 92.07643423802983 H 0.0 **** 0.06
28706 C 82.7701498091738 91.03760040898351 23.817686409301697 C 0.0 **** -0.24
28707 H 82.46458207176374 91.54846547992372 24.73037361269236 H 0.0 **** 0.06
28708 H 81.8862989238649 90.73650548012733 23.256517877862727 H 0.0 **** 0.06
28709 H 83.356644763789 90.15433567531352 24.07550986848317 H 0.0 **** 0.06
28710 H 83.37573907444016 91.71044212521667 23.209915535090786 H 0.0 **** 0.06
28711 C 0.0035731131653164994 42.504034178093235 35.673294850365835 C 0.0 **** -0.24
28712 H 0.5120538894631181 41.757335664550254 36.28353937698276 H 0.0 **** 0.06
28713 H -0.8967237611395262 42.06674833555104 35.239883455685515 H 0.0 **** 0.06
28714 H 0.6683408239494639 42.83349232443845 34.875063099137094 H 0.0 **** 0.06
28715 H -0.26923089991571203 43.356375262701135 36.2951447942371 H 0.0 **** 0.06
28716 C 93.1758794726369 19.26837140582893 60.6540763163552 C 0.0 **** -0.24
28717 H 92.21166716616335 19.32713977227536 61.157019194614236 H 0.0 **** 0.06
28718 H 93.92337189530082 19.80644771881566 61.237889421583304 H 0.0 **** 0.06
28719 H 93.09705838913908 19.716567803882896 59.66336950705295 H 0.0 **** 0.06
28720 H 93.47206676622022 18.223420079065818 60.55726934441998 H 0.0 **** 0.06
28721 C 105.19733366396417 47.00851977197999 62.64029464327939 C 0.0 **** -0.24
28722 H 104.17641192320983 46.981619419186984 62.259703143635136 H 0.0 **** 0.06
28723 H 105.25752854156714 46.427791677108814 63.56151191356565 H 0.0 **** 0.06
28724 H 105.4817704617204 48.04166609010946 62.84252762789285 H 0.0 **** 0.06
28725 H 105.87274548137106 46.58527040557783 61.89772376204118 H 0.0 **** 0.06
28726 C 68.55718735558737 17.714727525970375 5.969020267745199 C 0.0 **** -0.24
28727 H 69.0573768177817 18.33785764695193 5.226628752032555 H 0.0 **** 0.06
28728 H 67.53745986981419 18.072469501056815 6.114269388021928 H 0.0 **** 0.06
28729 H 69.10017271839777 17.76882189059853 6.912277600960577 H 0.0 **** 0.06
28730 H 68.5348323499614 16.682158215072505 5.620890129432377 H 0.0 **** 0.06
28731 C 60.41466974472934 21.882746082320637 99.70726489090092 C 0.0 **** -0.24
28732 H 60.091766587576316 21.634029987466505 100.7189168372801 H 0.0 **** 0.06
28733 H 60.88155166278672 22.867643031695422 99.70728414134794 H 0.0 **** 0.06
28734 H 59.55030780660087 21.890114204889557 99.04201383713782 H 0.0 **** 0.06
28735 H 61.13223879064637 21.138861782286767 99.3630738456638 H 0.0 **** 0.06
28736 C 109.76357016129568 94.86316769484098 55.056426139524206 C 0.0 **** -0.24
28737 H 108.92805918113395 95.55025270349219 54.92518480147464 H 0.0 **** 0.06
28738 H 109.60265441402049 93.97540958303783 54.4441529746548 H 0.0 **** 0.06
28739 H 109.83410765398844 94.57369987925104 56.104769862747276 H 0.0 **** 0.06
28740 H 110.68849374827971 95.35337167567518 54.75184910537013 H 0.0 **** 0.06
28741 C 77.77566738043953 32.606392064676896 43.82062900609924 C 0.0 **** -0.24
28742 H 78.72128648792685 33.01554277284805 44.174108645074796 H 0.0 **** 0.06
28743 H 77.89501008258395 32.24933073397614 42.79724134476464 H 0.0 **** 0.06
28744 H 77.01068356195407 33.38230042192981 43.8490491983481 H 0.0 **** 0.06
28745 H 77.47577339726794 31.777399104530616 44.46216702878769 H 0.0 **** 0.06
28746 C 16.43608415290913 20.180580613379107 62.95187099312511 C 0.0 **** -0.24
28747 H 16.07979607252591 19.831613879023905 63.92107311462826 H 0.0 **** 0.06
28748 H 16.18257729389404 21.233119368547648 62.8287404487304 H 0.0 **** 0.06
28749 H 15.964797430487806 19.597298688489502 62.160447097717906 H 0.0 **** 0.06
28750 H 17.51855637805309 20.058278997642617 62.89708040114664 H 0.0 **** 0.06
28751 C 20.18659852690365 0.4978456121838235 105.10108572288162 C 0.0 **** -0.24
28752 H 21.16504537585837 0.0741147918059255 105.3237145739412 H 0.0 **** 0.06
28753 H 20.2669083266953 1.1694065243718228 104.24626058728838 H 0.0 **** 0.06
28754 H 19.82560995002217 1.0527037747385748 105.96745483154086 H 0.0 **** 0.06
28755 H 19.487231826460715 -0.30543495061778003 104.86835989867768 H 0.0 **** 0.06
28756 C 50.2692262693475 108.12600829961693 105.3290834509554 C 0.0 **** -0.24
28757 H 49.19885403159941 107.97926439728452 105.47652250657426 H 0.0 **** 0.06
28758 H 50.60027349182061 107.54243040291492 104.46999887377982 H 0.0 **** 0.06
28759 H 50.80597605057117 107.80039879379322 106.22012264894876 H 0.0 **** 0.06
28760 H 50.469059902666615 109.18225288431809 105.15031096964313 H 0.0 **** 0.06
28761 C 0.2512742757423325 2.22630831612544 60.395888330902324 C 0.0 **** -0.24
28762 H -0.7853892382266139 1.8976631855819193 60.47985231438372 H 0.0 **** 0.06
28763 H 0.786344313514661 1.9729868905504162 61.31069596298039 H 0.0 **** 0.06
28764 H 0.2795326794709325 3.3053534090248746 60.24362575222881 H 0.0 **** 0.06
28765 H 0.7223559696579969 1.7271039770018035 59.54819447227851 H 0.0 **** 0.06
28766 C 8.105208005780074 30.006588770261544 8.975248569342853 C 0.0 **** -0.24
28767 H 8.520876345391317 31.014054892172936 9.00205520561019 H 0.0 **** 0.06
28768 H 8.892184254239211 29.295110731337104 8.72359373728898 H 0.0 **** 0.06
28769 H 7.317654658574503 29.9588017902297 8.223526654766701 H 0.0 **** 0.06
28770 H 7.690407265369755 29.75953361712152 9.952594894277354 H 0.0 **** 0.06
28771 C 13.925099662905708 103.89236815581481 106.2215210488823 C 0.0 **** -0.24
28772 H 14.10083668796618 103.76451476500618 107.2897250320606 H 0.0 **** 0.06
28773 H 12.866136452222776 103.7424297888834 106.0080141284663 H 0.0 **** 0.06
28774 H 14.515073265159941 103.16338719143295 105.66583800775055 H 0.0 **** 0.06
28775 H 14.216947281604746 104.89953392348194 105.92420167791366 H 0.0 **** 0.06
28776 C 95.99805973665332 29.093982205933074 5.555026996578704 C 0.0 **** -0.24
28777 H 96.5292451158407 29.9787803810827 5.203028338181241 H 0.0 **** 0.06
28778 H 96.67285150294634 28.237272878704374 5.540093687505816 H 0.0 **** 0.06
28779 H 95.14687922896144 28.898385129049714 4.9034771385802 H 0.0 **** 0.06
28780 H 95.6464595241547 29.26263549263976 6.572295412910165 H 0.0 **** 0.06
28781 C 40.3552318266282 58.21975333558507 81.43279138870298 C 0.0 **** -0.24
28782 H 41.19719991017158 57.52933160327513 81.36929031654043 H 0.0 **** 0.06
28783 H 39.46551661041781 57.74581507299248 81.0190716133873 H 0.0 **** 0.06
28784 H 40.584103680102714 59.122723878556485 80.86818929419978 H 0.0 **** 0.06
28785 H 40.177466079247836 58.478638540293126 82.47672315724611 H 0.0 **** 0.06
28786 C 19.81222197677856 33.939219096595195 45.1286286923129 C 0.0 **** -0.24
28787 H 19.343230767053853 34.92261459338192 45.157805090840725 H 0.0 **** 0.06
28788 H 20.89083295630509 34.055190501241015 45.016567166325274 H 0.0 **** 0.06
28789 H 19.417559512442693 33.37308676769615 44.28557863350386 H 0.0 **** 0.06
28790 H 19.598301021237845 33.40795559547439 46.05558425007476 H 0.0 **** 0.06
28791 C 40.09142615840494 100.43549342525463 79.84595510798374 C 0.0 **** -0.24
28792 H 40.509371138324354 100.70490000549978 80.81612150560841 H 0.0 **** 0.06
28793 H 39.33229062830961 99.66494266695321 79.97867091260582 H 0.0 **** 0.06
28794 H 40.885164007309015 100.0564819164653 79.20079518547175 H 0.0 **** 0.06
28795 H 39.64074515676543 101.31570643559697 79.3875159947238 H 0.0 **** 0.06
28796 C 70.99618911321608 45.6658373531019 75.44418086322068 C 0.0 **** -0.24
28797 H 71.17027146362608 44.638066423098984 75.12633819878809 H 0.0 **** 0.06
28798 H 70.50430681063528 45.66618823595581 76.41635747137829 H 0.0 **** 0.06
28799 H 70.36106307733087 46.16814504700049 74.71428316601786 H 0.0 **** 0.06
28800 H 71.9495606342461 46.18982081626299 75.51761684575182 H 0.0 **** 0.06
28801 C 10.826789056130622 93.38756266315988 44.433903175829414 C 0.0 **** -0.24
28802 H 11.138965038302416 92.59918208738878 45.118575315730396 H 0.0 **** 0.06
28803 H 11.208704550902524 93.17342226739174 43.43434461586074 H 0.0 **** 0.06
28804 H 11.22112158258551 94.34399935511999 44.77684549369933 H 0.0 **** 0.06
28805 H 9.738194134065168 93.43355347163708 44.40412617349966 H 0.0 **** 0.06
28806 C 28.286153944006088 14.261741414044991 91.93820372987831 C 0.0 **** -0.24
28807 H 27.26485240784544 14.047498223921565 92.25400238223283 H 0.0 **** 0.06
28808 H 28.38804299058225 14.054553505102476 90.87222361714524 H 0.0 **** 0.06
28809 H 28.979487222219575 13.635191117470598 92.49836207377646 H 0.0 **** 0.06
28810 H 28.51066573068786 15.311487872176755 92.1275726018255 H 0.0 **** 0.06
28811 C 107.42016050076312 105.80707259482861 93.15460962500532 C 0.0 **** -0.24
28812 H 106.49633599812896 105.37405227426675 92.77174229275613 H 0.0 **** 0.06
28813 H 107.37072090277489 105.86642602181794 94.24195806881414 H 0.0 **** 0.06
28814 H 107.55074092611702 106.80727087616638 92.74141247328521 H 0.0 **** 0.06
28815 H 108.2632085610843 105.18087265972028 92.8613872215173 H 0.0 **** 0.06
28816 C 100.92703602348979 76.1310316321875 71.15619902735881 C 0.0 **** -0.24
28817 H 100.9850885518311 75.04550726363777 71.23169371159463 H 0.0 **** 0.06
28818 H 99.88386413734759 76.43288588014457 71.06219283785686 H 0.0 **** 0.06
28819 H 101.48269592904694 76.4647591598009 70.27956754024058 H 0.0 **** 0.06
28820 H 101.35649547573348 76.5809742251667 72.051342019743 H 0.0 **** 0.06
28821 C 72.19531320636202 108.12505776056493 48.09961554641066 C 0.0 **** -0.24
28822 H 72.69132214669222 107.42351289868105 48.769639143270844 H 0.0 **** 0.06
28823 H 71.11861767593385 108.08230942115547 48.26180065958372 H 0.0 **** 0.06
28824 H 72.4179213103258 107.8590861284531 47.06578697999731 H 0.0 **** 0.06
28825 H 72.55408758020855 109.13509879557598 48.30002471904764 H 0.0 **** 0.06
28826 C 15.19851864645846 22.680782592279627 10.738090598600028 C 0.0 **** -0.24
28827 H 14.694600343833002 23.37695425933532 10.066135847838668 H 0.0 **** 0.06
28828 H 15.672781220222426 23.23692865352632 11.54665308607543 H 0.0 **** 0.06
28829 H 15.956485573991522 22.126403121460385 10.184325945378749 H 0.0 **** 0.06
28830 H 14.46968902495193 21.985379721312142 11.153729784736658 H 0.0 **** 0.06
28831 C 68.48658406041227 101.78916654118274 43.88692730774687 C 0.0 **** -0.24
28832 H 68.81629740463632 102.19788580100095 42.93162818079213 H 0.0 **** 0.06
28833 H 69.2156066734347 102.03716531571683 44.659173661976155 H 0.0 **** 0.06
28834 H 68.39596172091547 100.7053029836182 43.80681378379222 H 0.0 **** 0.06
28835 H 67.51896521634148 102.215532319011 44.14970987741427 H 0.0 **** 0.06
28836 C 102.64054323327106 24.49239918818543 39.834037691564646 C 0.0 **** -0.24
28837 H 101.72149504630967 25.072924374758003 39.75964263869649 H 0.0 **** 0.06
28838 H 103.47384086023553 25.157701441767927 40.06128367221436 H 0.0 **** 0.06
28839 H 102.82819496806177 23.985404780786993 38.88721286044904 H 0.0 **** 0.06
28840 H 102.53967587068702 23.752258952570486 40.6284834040074 H 0.0 **** 0.06
28841 C 94.49942229545829 66.87342475471495 59.18481019532753 C 0.0 **** -0.24
28842 H 94.75997131401327 67.83961947971754 58.75352414168697 H 0.0 **** 0.06
28843 H 95.36812961007604 66.21462935907904 59.15156799659812 H 0.0 **** 0.06
28844 H 93.6845712752659 66.42899629014453 58.61331663751889 H 0.0 **** 0.06
28845 H 94.18550659183396 67.00945159637608 60.21889398029481 H 0.0 **** 0.06
28846 C 47.16014080585148 19.17746381965702 28.78544473163356 C 0.0 **** -0.24
28847 H 47.94044956490086 19.79187278721224 29.235765335793083 H 0.0 **** 0.06
28848 H 46.22352982999331 19.73407149939817 28.770198045955645 H 0.0 **** 0.06
28849 H 47.03310121996259 18.266418793439016 29.371144048747112 H 0.0 **** 0.06
28850 H 47.44618665224925 18.917323986697028 27.766302555573482 H 0.0 **** 0.06
28851 C 46.60632954160076 58.58996604066398 10.107627910973918 C 0.0 **** -0.24
28852 H 47.155252049883984 59.351397947539326 10.660774555860428 H 0.0 **** 0.06
28853 H 47.23035210025358 57.70362580015085 9.993082910252 H 0.0 **** 0.06
28854 H 46.339322034852785 58.97689168518232 9.124062313780044 H 0.0 **** 0.06
28855 H 45.699044375409414 58.32837172600333 10.652663507652065 H 0.0 **** 0.06
28856 C 88.5551527562979 85.43602630533279 37.95947720910569 C 0.0 **** -0.24
28857 H 88.03881575173273 84.88594901722885 38.746875368250116 H 0.0 **** 0.06
28858 H 87.87194137157766 85.60726643931594 37.12779894417394 H 0.0 **** 0.06
28859 H 89.41206524945565 84.85736874744862 37.61410471771707 H 0.0 **** 0.06
28860 H 88.89775433053177 86.3941175681885 38.3515053590079 H 0.0 **** 0.06
28861 C 40.599887989464484 51.24437267298714 6.824178978766156 C 0.0 **** -0.24
28862 H 40.29806864217665 51.52691535863795 7.833164849913999 H 0.0 **** 0.06
28863 H 39.952763018976384 51.73955041392651 6.09943484066909 H 0.0 **** 0.06
28864 H 40.51521752784942 50.164310604871616 6.708530709394552 H 0.0 **** 0.06
28865 H 41.63369871224347 51.54867129165797 6.6570457028507235 H 0.0 **** 0.06
28866 C 20.323591121699394 97.21180660404136 101.98089831435087 C 0.0 **** -0.24
28867 H 19.42166365839958 96.82812716829864 102.45831081797621 H 0.0 **** 0.06
28868 H 20.880006078120303 97.8221599211129 102.69254709010767 H 0.0 **** 0.06
28869 H 20.04791889611417 97.81848588520324 101.11795924546175 H 0.0 **** 0.06
28870 H 20.94484017674651 96.377109842301 101.65433940691901 H 0.0 **** 0.06
28871 C 83.34797765468784 99.76491253204262 109.13831210302827 C 0.0 **** -0.24
28872 H 84.13259165490211 99.20313143177816 109.64693936257284 H 0.0 **** 0.06
28873 H 83.77214268701385 100.2856667987017 108.28002967098459 H 0.0 **** 0.06
28874 H 82.91647219067525 100.49116630852632 109.82790348385694 H 0.0 **** 0.06
28875 H 82.57142085488343 99.07847975897619 108.80184474465781 H 0.0 **** 0.06
28876 C 91.96332039106733 39.629883328348114 81.65124050756128 C 0.0 **** -0.24
28877 H 91.39388034935996 40.53791466124727 81.84671637157544 H 0.0 **** 0.06
28878 H 92.6055762577796 39.78335809353882 80.7844553018937 H 0.0 **** 0.06
28879 H 91.27671938775876 38.8063975540955 81.45339459954431 H 0.0 **** 0.06
28880 H 92.57521642797076 39.3906693579936 82.52031449131042 H 0.0 **** 0.06
28881 C 45.54429222594958 97.99575125499143 2.012532844236091 C 0.0 **** -0.24
28882 H 44.834457188889466 97.61350716737503 1.280038250330506 H 0.0 **** 0.06
28883 H 45.61607118698468 97.29842121394863 2.8479533306092577 H 0.0 **** 0.06
28884 H 45.203955702518336 98.96556416603889 2.3772351393778877 H 0.0 **** 0.06
28885 H 46.52285482024435 98.107010208417 1.5462192251100504 H 0.0 **** 0.06
28886 C 39.82277195127962 77.06300056753322 98.77116032882816 C 0.0 **** -0.24
28887 H 40.01597397149577 76.19726089755038 98.1362881959587 H 0.0 **** 0.06
28888 H 40.7575177135889 77.39989290268508 99.21921684426688 H 0.0 **** 0.06
28889 H 39.12097635723767 76.78696057413906 99.55764208709937 H 0.0 **** 0.06
28890 H 39.39703418636362 77.86607025157284 98.169367024397 H 0.0 **** 0.06
28891 C 18.118403364274144 5.939190646052031 106.13178049834073 C 0.0 **** -0.24
28892 H 18.760368107708018 6.639974165111326 105.59759281313335 H 0.0 **** 0.06
28893 H 17.381867418388254 6.492980819737626 106.71451543655927 H 0.0 **** 0.06
28894 H 18.725210093960442 5.3281847462336955 106.80000734105916 H 0.0 **** 0.06
28895 H 17.606972971372358 5.295856286902836 105.41614542321412 H 0.0 **** 0.06
28896 C 77.69606506249346 18.14162780279881 59.65083206552225 C 0.0 **** -0.24
28897 H 77.48786424111745 17.574721930464364 58.74333005941614 H 0.0 **** 0.06
28898 H 77.27888142327907 17.616337313086547 60.51068816151883 H 0.0 **** 0.06
28899 H 77.24373134108635 19.129641622091413 59.57280279559586 H 0.0 **** 0.06
28900 H 78.77446275516155 18.243560522723556 59.77439133789022 H 0.0 **** 0.06
28901 C 107.16342275987236 88.88391195644672 32.58913449168372 C 0.0 **** -0.24
28902 H 107.27308678668479 87.9841390960674 33.19601291776823 H 0.0 **** 0.06
28903 H 107.54207104052554 88.69202768607511 31.58522631148719 H 0.0 **** 0.06
28904 H 107.72848191906253 89.69828182439915 33.04203135808149 H 0.0 **** 0.06
28905 H 106.11004020699552 89.15713418895263 32.533957495719136 H 0.0 **** 0.06
28906 C 106.54705079083897 103.4135687022719 68.6110864746534 C 0.0 **** -0.24
28907 H 107.15259824942018 104.15531990855747 69.13162287299826 H 0.0 **** 0.06
28908 H 107.09196459294469 103.04577058843093 67.74090069320033 H 0.0 **** 0.06
28909 H 105.61161133482392 103.86934214096162 68.28787093453778 H 0.0 **** 0.06
28910 H 106.33241938743845 102.58292161498164 69.28393678663252 H 0.0 **** 0.06
28911 C 38.44110727472895 0.30845666949917927 13.24104184383765 C 0.0 **** -0.24
28912 H 37.62328481154469 1.0065289284948165 13.065373929376904 H 0.0 **** 0.06
28913 H 38.27147460815587 -0.22165795397292243 14.179192720703043 H 0.0 **** 0.06
28914 H 39.381316018339135 0.8563617312748022 13.298715617367066 H 0.0 **** 0.06
28915 H 38.48824389005679 -0.4089661075093147 12.42162958926724 H 0.0 **** 0.06
28916 C 20.97915873003016 3.666657911272182 107.40462943624448 C 0.0 **** -0.24
28917 H 21.603026257640675 4.427764118077221 107.87434044631652 H 0.0 **** 0.06
28918 H 21.518810622282608 2.7196496766690643 107.3807757893697 H 0.0 **** 0.06
28919 H 20.736671556527188 3.97273518695431 106.3866537799916 H 0.0 **** 0.06
28920 H 20.059257571527606 3.5472256352500153 107.97715850128895 H 0.0 **** 0.06
28921 C 99.03070850549949 53.899404056157806 110.82512407883472 C 0.0 **** -0.24
28922 H 98.47774813588154 53.45763946711809 109.99675003281041 H 0.0 **** 0.06
28923 H 100.09651211855123 53.89450722734538 110.59394346377206 H 0.0 **** 0.06
28924 H 98.85217762343314 53.319403416423626 111.73014047367917 H 0.0 **** 0.06
28925 H 98.69650848507791 54.92559246326302 110.97833451403051 H 0.0 **** 0.06
28926 C 56.093005076646214 27.17587487598812 34.28622392261343 C 0.0 **** -0.24
28927 H 55.567924327300894 27.18174701747924 33.33039364509881 H 0.0 **** 0.06
28928 H 55.82428056023429 26.277508336859558 34.84314985554306 H 0.0 **** 0.06
28929 H 55.809180368841794 28.058600086121224 34.860374195706186 H 0.0 **** 0.06
28930 H 57.167829837495596 27.18802766298684 34.11030721920034 H 0.0 **** 0.06
28931 C 30.071712398902605 109.26924442047198 15.767107568977373 C 0.0 **** -0.24
28932 H 30.363400858228033 108.24749783582584 16.00939762997619 H 0.0 **** 0.06
28933 H 29.752875081853688 109.3186200885295 14.725714000126871 H 0.0 **** 0.06
28934 H 30.92068837364502 109.93543614630714 15.91916377542984 H 0.0 **** 0.06
28935 H 29.249417944904167 109.57484654216185 16.413485066135728 H 0.0 **** 0.06
28936 C 102.51580829978832 21.740709657234106 10.483127637259301 C 0.0 **** -0.24
28937 H 102.31922523510883 22.145199004955558 11.476437377060336 H 0.0 **** 0.06
28938 H 102.0747944626824 20.74645837415062 10.401592414807595 H 0.0 **** 0.06
28939 H 103.59175198162859 21.675469389465604 10.32379907032518 H 0.0 **** 0.06
28940 H 102.07580998556156 22.396227058104387 9.730597087782442 H 0.0 **** 0.06
28941 C 47.00266240703484 97.10312081380033 108.11741718084711 C 0.0 **** -0.24
28942 H 46.13900025392966 97.08246899875786 108.78054372812987 H 0.0 **** 0.06
28943 H 47.09237616413271 96.14421170341973 107.60690714639006 H 0.0 **** 0.06
28944 H 47.90389923570105 97.29076863136123 108.70119043601582 H 0.0 **** 0.06
28945 H 46.876106225415064 97.89707193546516 107.38047013415806 H 0.0 **** 0.06
28946 C 91.30079125700064 40.925181477017766 97.99446186943668 C 0.0 **** -0.24
28947 H 92.33807911998485 40.59507337213588 97.93765286214776 H 0.0 **** 0.06
28948 H 90.76839827355354 40.32088693972159 98.72997164495125 H 0.0 **** 0.06
28949 H 90.82897752392796 40.809232491102414 97.01942171743246 H 0.0 **** 0.06
28950 H 91.268146008916 41.97260187629818 98.2919050616336 H 0.0 **** 0.06
28951 C 76.23651675978945 69.46514822555102 51.01919434601797 C 0.0 **** -0.24
28952 H 76.69325944391893 69.3028798074281 50.042325435248245 H 0.0 **** 0.06
28953 H 76.77917707081915 70.24919250128028 51.547926911269656 H 0.0 **** 0.06
28954 H 76.27653708482478 68.54213294814406 51.59717174922474 H 0.0 **** 0.06
28955 H 75.19791366865167 69.76750380501491 50.887332963215556 H 0.0 **** 0.06
28956 C 6.376171163766216 17.07721633829749 67.68040427747331 C 0.0 **** -0.24
28957 H 6.431833015038919 18.098554006909865 67.30499408918479 H 0.0 **** 0.06
28958 H 7.3579985685004345 16.608595027742638 67.60471539064037 H 0.0 **** 0.06
28959 H 5.6568050289197345 16.511692859904713 67.08727752749002 H 0.0 **** 0.06
28960 H 6.057168630007467 17.089602896522592 68.72261763832256 H 0.0 **** 0.06
28961 C 32.0005269836617 96.73754473561043 71.12912126401028 C 0.0 **** -0.24
28962 H 31.595459545712572 97.21509625276862 70.2366451139531 H 0.0 **** 0.06
28963 H 32.54861872707954 97.47304855462377 71.71807568635339 H 0.0 **** 0.06
28964 H 32.673867893464035 95.93209071805836 70.8361953878919 H 0.0 **** 0.06
28965 H 31.1842984365868 96.32900998741822 71.72523708279982 H 0.0 **** 0.06
28966 C 70.98906501503495 75.07325056027378 34.21912243449367 C 0.0 **** -0.24
28967 H 71.85824814598567 75.52347752767321 33.739858328619135 H 0.0 **** 0.06
28968 H 71.29260815699439 74.16831102912056 34.74665897385964 H 0.0 **** 0.06
28969 H 70.24641217675014 74.82085930465342 33.46148848261765 H 0.0 **** 0.06
28970 H 70.55796492297998 75.78104006165194 34.92779408675631 H 0.0 **** 0.06
28971 C 37.68134628845689 82.32065296856692 96.34205325951791 C 0.0 **** -0.24
28972 H 37.9381341026359 82.5756176159693 97.37075527310407 H 0.0 **** 0.06
28973 H 37.7279795585211 81.23951524076386 96.21378302732103 H 0.0 **** 0.06
28974 H 38.386504771878265 82.79834075924236 95.66281136270749 H 0.0 **** 0.06
28975 H 36.671909375243445 82.67063585980637 96.12260189441804 H 0.0 **** 0.06
28976 C 96.02928887857342 51.010674587689664 13.354668685066713 C 0.0 **** -0.24
28977 H 97.04511323318309 51.39096979983953 13.457221649910679 H 0.0 **** 0.06
28978 H 95.79710317954886 50.362869229018685 14.199737161659044 H 0.0 **** 0.06
28979 H 95.94515557469822 50.44348308165309 12.42766430783351 H 0.0 **** 0.06
28980 H 95.3296132129633 51.8460300036405 13.333314303511145 H 0.0 **** 0.06
28981 C 100.62186469551014 40.71711700596063 46.30850860426369 C 0.0 **** -0.24
28982 H 101.32389855815762 41.048739516644844 47.07323383211849 H 0.0 **** 0.06
28983 H 100.3028808526495 39.697602634165094 46.52504839928224 H 0.0 **** 0.06
28984 H 101.10623951077017 40.74761320872756 45.33278081119704 H 0.0 **** 0.06
28985 H 99.75276145900979 41.375990175414756 46.302984823239456 H 0.0 **** 0.06
28986 C 42.26514450768852 64.19449287236782 68.19535997074405 C 0.0 **** -0.24
28987 H 42.710294614741684 63.96330998222396 67.22851122367041 H 0.0 **** 0.06
28988 H 42.27612391145013 65.27292859979062 68.35174584308135 H 0.0 **** 0.06
28989 H 42.83691589564083 63.70623750929269 68.98489017336487 H 0.0 **** 0.06
28990 H 41.23610267368724 63.834818378893004 68.21678255331403 H 0.0 **** 0.06
28991 C 26.90817276031828 85.49176625090901 72.59815091256064 C 0.0 **** -0.24
28992 H 26.481946845900552 85.59332172267293 71.60007141174947 H 0.0 **** 0.06
28993 H 27.442499384007988 84.54395017011602 72.67112023763195 H 0.0 **** 0.06
28994 H 26.109162805818073 85.51660565351999 73.33862021615619 H 0.0 **** 0.06
28995 H 27.599904532386006 86.3136813149123 72.78307392750736 H 0.0 **** 0.06
28996 C 80.69170533925819 8.932325595427287 100.0581034530519 C 0.0 **** -0.24
28997 H 80.92627690181135 9.727968570396287 99.35173094758979 H 0.0 **** 0.06
28998 H 81.61740769200554 8.517780886339855 100.45753252158667 H 0.0 **** 0.06
28999 H 80.13154727940048 8.148723801900122 99.54892091474349 H 0.0 **** 0.06
29000 H 80.09213721405939 9.3356358704811 100.87400761648315 H 0.0 **** 0.06
29001 C 16.980044028517014 47.337310398339895 110.07647457438964 C 0.0 **** -0.24
29002 H 17.945644702111224 47.84036328634676 110.02693819724153 H 0.0 **** 0.06
29003 H 16.706298819457743 46.978166445849126 109.08413192088882 H 0.0 **** 0.06
29004 H 16.223635059298488 48.037623363701556 110.43141256518122 H 0.0 **** 0.06
29005 H 17.044396678693232 46.494455833904915 110.76371586260089 H 0.0 **** 0.06
29006 C 108.64418383813856 46.045000087489484 51.103047195006326 C 0.0 **** -0.24
29007 H 109.63849363392589 46.12219103545499 50.66472967257778 H 0.0 **** 0.06
29008 H 108.21121638938544 45.07604902370275 50.85267586706735 H 0.0 **** 0.06
29009 H 108.00996968297358 46.83932116936768 50.70747768936183 H 0.0 **** 0.06
29010 H 108.71477149114068 46.14356074627841 52.18571651182714 H 0.0 **** 0.06
29011 C 63.870905307046186 56.427676149807304 52.183380577478516 C 0.0 **** -0.24
29012 H 64.271219225961 55.50580757437319 52.60299198152842 H 0.0 **** 0.06
29013 H 63.96708767178772 57.23134972194473 52.91430775512032 H 0.0 **** 0.06
29014 H 62.819466656431544 56.28704314318876 51.934284581163794 H 0.0 **** 0.06
29015 H 64.42673578794411 56.68755505602249 51.28226505654716 H 0.0 **** 0.06
29016 C 28.1508636642144 47.68470153750746 56.21399914590332 C 0.0 **** -0.24
29017 H 28.949893714936536 46.95841771422025 56.066227357902775 H 0.0 **** 0.06
29018 H 27.353473828487978 47.233611893631156 56.80570632144022 H 0.0 **** 0.06
29019 H 27.756196923579154 47.992681834048355 55.24573728324095 H 0.0 **** 0.06
29020 H 28.544605758286707 48.55619644127445 56.73859194976365 H 0.0 **** 0.06
29021 C 35.156669637675975 7.01321988670497 76.03772201387477 C 0.0 **** -0.24
29022 H 36.000238567946724 6.717457123392094 75.41386899571842 H 0.0 **** 0.06
29023 H 34.58230754675162 6.129246515885633 76.31630421091887 H 0.0 **** 0.06
29024 H 34.51834267397166 7.700668072026257 75.48263696195147 H 0.0 **** 0.06
29025 H 35.525653982792846 7.506018613451497 76.93722893451138 H 0.0 **** 0.06
29026 C 13.678035905461357 102.79782920226593 24.920045121982582 C 0.0 **** -0.24
29027 H 14.233059562070167 102.94881054023058 23.994298344798466 H 0.0 **** 0.06
29028 H 12.70596424842239 103.28366225033943 24.8439096706353 H 0.0 **** 0.06
29029 H 14.235900403920624 103.22862597695354 25.751431354124094 H 0.0 **** 0.06
29030 H 13.539063334935292 101.72955491804137 25.090140619061117 H 0.0 **** 0.06
29031 C 64.42751234681373 69.28383074217206 67.62364109113707 C 0.0 **** -0.24
29032 H 64.20301479342899 69.47671467989267 66.57538669294586 H 0.0 **** 0.06
29033 H 65.48882634667416 69.45673228308107 67.8063853436689 H 0.0 **** 0.06
29034 H 64.18090604902505 68.24959236638608 67.8631844792026 H 0.0 **** 0.06
29035 H 63.83718458503023 69.95211079522312 68.25058577631125 H 0.0 **** 0.06
29036 C 69.29717260194161 34.06170937294007 34.71820639425806 C 0.0 **** -0.24
29037 H 70.2071350855523 34.63915077026502 34.55701269015623 H 0.0 **** 0.06
29038 H 68.81586233590568 34.39231406120632 35.63880332970234 H 0.0 **** 0.06
29039 H 69.54812993627878 33.003882831673536 34.79927537201206 H 0.0 **** 0.06
29040 H 68.6183958757539 34.2114568159933 33.8792525600536 H 0.0 **** 0.06
29041 C 95.4280688444369 10.158187276807553 16.66746191945549 C 0.0 **** -0.24
29042 H 96.32686284037777 9.577330292550869 16.457747103687453 H 0.0 **** 0.06
29043 H 95.56359043837352 11.179137658837192 16.30899294972123 H 0.0 **** 0.06
29044 H 95.2455591491746 10.17010785141241 17.741859809784415 H 0.0 **** 0.06
29045 H 94.57630457887024 9.704592224969588 16.15937731832301 H 0.0 **** 0.06
29046 C 16.530648391121872 56.01193387352123 67.84088422479681 C 0.0 **** -0.24
29047 H 16.75242710069284 56.91105454371058 68.41661072634253 H 0.0 **** 0.06
29048 H 17.05627017252806 55.162145974450226 68.27880443023301 H 0.0 **** 0.06
29049 H 16.859296190112786 56.15135256150205 66.8113951549999 H 0.0 **** 0.06
29050 H 15.457776650407823 55.82467444799022 67.85802430659317 H 0.0 **** 0.06
29051 C 70.01936732361395 38.741625380478865 108.66343764026418 C 0.0 **** -0.24
29052 H 70.3174895352613 39.18872739174844 107.71474553795825 H 0.0 **** 0.06
29053 H 70.87590137783008 38.714157911146174 109.3364388626467 H 0.0 **** 0.06
29054 H 69.66080781781488 37.72737131423821 108.48923810660688 H 0.0 **** 0.06
29055 H 69.22406658333307 39.33693318337126 109.11034591906173 H 0.0 **** 0.06
29056 C 39.86907376426831 56.11198910105946 28.872003049658602 C 0.0 **** -0.24
29057 H 39.81411365741775 55.80027245540638 27.828542510743915 H 0.0 **** 0.06
29058 H 38.89545297340277 55.97605124819097 29.342582666121928 H 0.0 **** 0.06
29059 H 40.153326577372866 57.163789293293554 28.922742618397677 H 0.0 **** 0.06
29060 H 40.61246146967272 55.50966898418879 29.39280901660817 H 0.0 **** 0.06
29061 C 14.175600972808724 14.27572884240783 20.706190893462917 C 0.0 **** -0.24
29062 H 13.272579059101346 14.712189416589638 20.279216268998198 H 0.0 **** 0.06
29063 H 14.526961794844198 13.46857864600338 20.063145885259132 H 0.0 **** 0.06
29064 H 13.955328729039593 13.880736967037365 21.69756884959679 H 0.0 **** 0.06
29065 H 14.947990017814618 15.041615755783425 20.783509606012956 H 0.0 **** 0.06
29066 C 77.63683129175773 98.48224307451149 34.43462590241029 C 0.0 **** -0.24
29067 H 77.24381596773014 98.86400431865414 35.377232432126874 H 0.0 **** 0.06
29068 H 76.8090497265167 98.16901264028992 33.796650808857834 H 0.0 **** 0.06
29069 H 78.28758554023919 97.63018021540013 34.63094329970983 H 0.0 **** 0.06
29070 H 78.20505649462567 99.26587612468786 33.93450587490787 H 0.0 **** 0.06
29071 C 39.67260441952814 79.79455539413028 27.645529924413907 C 0.0 **** -0.24
29072 H 40.51819349592631 79.37572356654488 27.098107923687763 H 0.0 **** 0.06
29073 H 38.79614114132224 79.16324863409865 27.495681056579116 H 0.0 **** 0.06
29074 H 39.464528318070336 80.79971949872736 27.2785010378158 H 0.0 **** 0.06
29075 H 39.91318981247889 79.83701434499774 28.707593771794237 H 0.0 **** 0.06
29076 C 0.09471704605601872 29.777159770924925 67.78132780468667 C 0.0 **** -0.24
29077 H -0.42133851586189053 28.895003618182614 68.16070746680816 H 0.0 **** 0.06
29078 H -0.30546353991617536 30.03928544735203 66.80182468110172 H 0.0 **** 0.06
29079 H 1.1607401756022568 29.564639847277164 67.69304550453546 H 0.0 **** 0.06
29080 H -0.0531929140380214 30.60849531521069 68.4697677295427 H 0.0 **** 0.06
29081 C 16.563921789866527 50.57518454582736 48.914083052912474 C 0.0 **** -0.24
29082 H 16.382691937366303 50.40432023936086 47.852895103513994 H 0.0 **** 0.06
29083 H 15.610596200213877 50.62446241726158 49.44111700774867 H 0.0 **** 0.06
29084 H 17.10041156103543 51.515253348346434 49.043848680817874 H 0.0 **** 0.06
29085 H 17.16082755518879 49.7575526674574 49.31750630923815 H 0.0 **** 0.06
29086 C 1.3534321091016084 74.62219741526214 16.2137206922904 C 0.0 **** -0.24
29087 H 2.262149756373189 74.10143128175898 16.51469673091374 H 0.0 **** 0.06
29088 H 0.5704188276613982 73.89370938079567 16.002561673769147 H 0.0 **** 0.06
29089 H 1.5526844187836195 75.21187150810279 15.318334873271798 H 0.0 **** 0.06
29090 H 1.0293427974580789 75.28137246422685 17.01900020933578 H 0.0 **** 0.06
29091 C 78.47355616634593 34.049876412792656 16.71714619500797 C 0.0 **** -0.24
29092 H 77.41173221294412 33.82250737263445 16.812198540228522 H 0.0 **** 0.06
29093 H 78.65468983374342 34.54508392249579 15.762577755408614 H 0.0 **** 0.06
29094 H 79.04897443121308 33.12541381572467 16.762350649270388 H 0.0 **** 0.06
29095 H 78.77708605243896 34.70789353748722 17.53161523828433 H 0.0 **** 0.06
29096 C 20.873848797538813 18.722137502685964 63.78859999932567 C 0.0 **** -0.24
29097 H 21.656101388857337 19.050553249573365 64.4723072967676 H 0.0 **** 0.06
29098 H 21.113402490615726 19.051319931500792 62.77734548014391 H 0.0 **** 0.06
29099 H 19.920308450145086 19.15224442052318 64.0954559776703 H 0.0 **** 0.06
29100 H 20.805571866324158 17.633751025877935 63.81002312129398 H 0.0 **** 0.06
29101 C 70.76341456738533 89.93571753501003 58.24010577062891 C 0.0 **** -0.24
29102 H 71.66412815022824 89.67081361498234 58.794112720684225 H 0.0 **** 0.06
29103 H 71.02670539206241 90.16262367793104 57.20715453249805 H 0.0 **** 0.06
29104 H 70.29970769547896 90.80913532731785 58.69810905232772 H 0.0 **** 0.06
29105 H 70.06479291933974 89.09927516092085 58.26331539677593 H 0.0 **** 0.06
29106 C 7.765676924512391 98.10637184040593 30.235483681405384 C 0.0 **** -0.24
29107 H 7.246479021325314 98.77193301610168 29.545397727767295 H 0.0 **** 0.06
29108 H 8.595859668636095 98.64030383747297 30.69996087389775 H 0.0 **** 0.06
29109 H 8.147939417639506 97.24417345801004 29.68942594931834 H 0.0 **** 0.06
29110 H 7.072336901554465 97.76956569877149 31.0062826024727 H 0.0 **** 0.06
29111 C 38.85731559673863 89.63236007878697 47.152053205909624 C 0.0 **** -0.24
29112 H 39.16028046735008 88.73262498547686 46.61598715611203 H 0.0 **** 0.06
29113 H 38.46105021438569 90.36073445901945 46.44346777105159 H 0.0 **** 0.06
29114 H 39.718660117697056 90.0561347078166 47.66729038894812 H 0.0 **** 0.06
29115 H 38.08626762663985 89.37782395238244 47.88077965165476 H 0.0 **** 0.06
29116 C 104.38895015777706 25.30729664348283 94.54175284840939 C 0.0 **** -0.24
29117 H 103.64361521499899 24.625819466140456 94.950451214771 H 0.0 **** 0.06
29118 H 105.37148760564091 24.83811518369032 94.58347347090519 H 0.0 **** 0.06
29119 H 104.40035663124598 26.227689728010347 95.12698295428142 H 0.0 **** 0.06
29120 H 104.14059873978638 25.538917785805978 93.50641381759819 H 0.0 **** 0.06
29121 C 3.4723406639830863 69.75946074146805 7.097413731615433 C 0.0 **** -0.24
29122 H 2.4065263609721965 69.75558340192964 6.869156052174802 H 0.0 **** 0.06
29123 H 3.940861233303208 68.8767894607912 6.661333862179532 H 0.0 **** 0.06
29124 H 3.612452234590533 69.74882157451111 8.178793562751622 H 0.0 **** 0.06
29125 H 3.929149389026314 70.65684015824462 6.681721976171417 H 0.0 **** 0.06
29126 C 71.81665109344956 54.5171866926532 101.06662513757637 C 0.0 **** -0.24
29127 H 71.17630599469862 55.1251480155088 100.42790854015024 H 0.0 **** 0.06
29128 H 71.67383358122868 54.80957453374458 102.10730245562468 H 0.0 **** 0.06
29129 H 72.85917122923092 54.67000243541329 100.78590482765877 H 0.0 **** 0.06
29130 H 71.55846983069523 53.46604569897534 100.9446632802059 H 0.0 **** 0.06
29131 C 83.82336830448546 32.46975746351018 69.10960136752561 C 0.0 **** -0.24
29132 H 84.01761894151832 31.581251705482373 68.50925737120576 H 0.0 **** 0.06
29133 H 82.80312645596496 32.433027021575185 69.49257423547175 H 0.0 **** 0.06
29134 H 83.94814712767425 33.35937474264426 68.49254378840726 H 0.0 **** 0.06
29135 H 84.52458069278413 32.50537638433866 69.94403007501742 H 0.0 **** 0.06
29136 C 27.32416878817365 8.547842920198903 106.44810325966715 C 0.0 **** -0.24
29137 H 27.918356442245432 7.994276651272671 105.72129714294836 H 0.0 **** 0.06
29138 H 27.756220733198845 8.422020104066206 107.4414810970062 H 0.0 **** 0.06
29139 H 26.302263715653655 8.169103016572123 106.44614836799619 H 0.0 **** 0.06
29140 H 27.320492379069435 9.605039699809794 106.18478951109326 H 0.0 **** 0.06
29141 C 24.17490993917494 62.91628923602207 76.62314439193895 C 0.0 **** -0.24
29142 H 23.830779690376062 61.95473497981749 77.0043549999306 H 0.0 **** 0.06
29143 H 23.4983546826723 63.26036631065193 75.84113501802867 H 0.0 **** 0.06
29144 H 25.17828060335279 62.80520588732742 76.21206102977368 H 0.0 **** 0.06
29145 H 24.192653352480846 63.642517267039125 77.43563976939038 H 0.0 **** 0.06
29146 C 97.64605881335609 1.120433555885029 14.597807498153287 C 0.0 **** -0.24
29147 H 97.44942701137386 0.5120798235181496 13.715290995775916 H 0.0 **** 0.06
29148 H 97.16300742437332 2.0915030283856737 14.484232752578208 H 0.0 **** 0.06
29149 H 98.7218165165258 1.2611982927327432 14.709451829282955 H 0.0 **** 0.06
29150 H 97.25154781790897 0.6183228112295325 15.480958440296718 H 0.0 **** 0.06
29151 C 10.981233428863561 19.603564466702835 15.101645922130729 C 0.0 **** -0.24
29152 H 11.025454411050191 18.92278768116381 14.251388774428428 H 0.0 **** 0.06
29153 H 11.732124091066908 19.313562175593233 15.837726555838497 H 0.0 **** 0.06
29154 H 9.99119592621679 19.55682051083585 15.554739130105606 H 0.0 **** 0.06
29155 H 11.178424801993458 20.620463438868455 14.762037641060026 H 0.0 **** 0.06
29156 C 64.06356480466029 4.4414961639014905 98.2963731363149 C 0.0 **** -0.24
29157 H 64.15722269192715 4.276009860329168 99.3687952183157 H 0.0 **** 0.06
29158 H 63.9591572971011 5.509819332797619 98.10128720624104 H 0.0 **** 0.06
29159 H 63.18442146093513 3.9165296212246545 97.92286164175405 H 0.0 **** 0.06
29160 H 64.9533973134986 4.065571659358568 97.7910617245166 H 0.0 **** 0.06
29161 C 33.75422648337323 106.92958474556497 93.0869931696504 C 0.0 **** -0.24
29162 H 34.14561715514324 107.67252668635328 92.3929497392623 H 0.0 **** 0.06
29163 H 33.33890662927942 106.09163962380785 92.52488708592749 H 0.0 **** 0.06
29164 H 32.97313594975847 107.37914686117007 93.69872279112421 H 0.0 **** 0.06
29165 H 34.559467150056264 106.57306045201359 93.72915718161678 H 0.0 **** 0.06
29166 C 8.149036541973373 81.9296576149881 59.76033390401042 C 0.0 **** -0.24
29167 H 7.573715573560335 82.41633284537964 60.54747919056145 H 0.0 **** 0.06
29168 H 7.46842101008049 81.42551140336437 59.07340385974034 H 0.0 **** 0.06
29169 H 8.826563823677901 81.19929370743623 60.20217443692236 H 0.0 **** 0.06
29170 H 8.725998119961687 82.67836052018981 59.21650297084763 H 0.0 **** 0.06
29171 C 66.00561422379513 51.49912873450762 64.11405853559052 C 0.0 **** -0.24
29172 H 65.65706562403841 50.50447454744108 64.39296834044512 H 0.0 **** 0.06
29173 H 65.67393249689536 52.22219410162029 64.85903734400779 H 0.0 **** 0.06
29174 H 65.5963543230211 51.76681858453179 63.13986542604607 H 0.0 **** 0.06
29175 H 67.0945850683197 51.50096239881668 64.0636811187614 H 0.0 **** 0.06
29176 C 26.97164274083309 35.08844746610528 75.37440914972274 C 0.0 **** -0.24
29177 H 26.683150499463295 35.36472177765823 74.36023043579061 H 0.0 **** 0.06
29178 H 26.08080543216562 34.8310767786183 75.94813904736725 H 0.0 **** 0.06
29179 H 27.48013716066734 35.92776962297574 75.84909903443628 H 0.0 **** 0.06
29180 H 27.642248947283804 34.22950558103296 75.33897021263266 H 0.0 **** 0.06
29181 C 63.547879448056676 100.57064039649124 8.210923047286329 C 0.0 **** -0.24
29182 H 63.99429245647406 100.12753782470669 7.320644285032156 H 0.0 **** 0.06
29183 H 64.1354679549071 101.43464545248756 8.519689449760035 H 0.0 **** 0.06
29184 H 63.533063274798565 99.83400451090452 9.014575842583413 H 0.0 **** 0.06
29185 H 62.52828765508076 100.88564764280441 7.986707100308651 H 0.0 **** 0.06
29186 C 102.21636658706011 82.31353538641362 4.030934426513554 C 0.0 **** -0.24
29187 H 102.65271563329726 81.9448994764438 3.1030159126029417 H 0.0 **** 0.06
29188 H 102.23965601120624 83.40409662252587 4.035793917533397 H 0.0 **** 0.06
29189 H 102.78773054682752 81.9342589891255 4.877212330536537 H 0.0 **** 0.06
29190 H 101.18437549716944 81.97182351921951 4.107335324500326 H 0.0 **** 0.06
29191 C 38.2685636122346 1.9633155581307404 107.5879634251933 C 0.0 **** -0.24
29192 H 38.02145034696977 3.013858064877734 107.43017786578403 H 0.0 **** 0.06
29193 H 39.28928610154293 1.8826753334249693 107.96255322155518 H 0.0 **** 0.06
29194 H 38.183420499025516 1.4252657068688865 106.64397098461991 H 0.0 **** 0.06
29195 H 37.57914687807022 1.534063926732217 108.31457494858643 H 0.0 **** 0.06
29196 C 34.44590224059624 72.1604803439514 58.45724520375501 C 0.0 **** -0.24
29197 H 34.40614476584659 72.7526477647324 59.37148850824639 H 0.0 **** 0.06
29198 H 33.54487845293119 71.55145589467722 58.37907791932605 H 0.0 **** 0.06
29199 H 35.32173030063467 71.51167339215321 58.4837690009345 H 0.0 **** 0.06
29200 H 34.51189631124589 72.82542054461919 57.596487392941185 H 0.0 **** 0.06
29201 C 24.424073258372857 56.296974919434945 59.091677461878604 C 0.0 **** -0.24
29202 H 24.60394042859781 56.77870625464806 60.05297422872849 H 0.0 **** 0.06
29203 H 23.635968924940357 55.55190736335339 59.2011198383797 H 0.0 **** 0.06
29204 H 25.339041533035527 55.8119216922139 58.75154490466541 H 0.0 **** 0.06
29205 H 24.117559380656758 57.04659841893522 58.362629762435766 H 0.0 **** 0.06
29206 C 56.29453168104817 12.376564810497541 81.18969339590365 C 0.0 **** -0.24
29207 H 56.99710353526126 12.927499567802158 81.8136904588086 H 0.0 **** 0.06
29208 H 55.37322152889749 12.950882134374424 81.08582321656556 H 0.0 **** 0.06
29209 H 56.072864916313335 11.41517667356726 81.6532421380293 H 0.0 **** 0.06
29210 H 56.73359000069814 12.212752718557596 80.20558917351866 H 0.0 **** 0.06
29211 C 107.85341479907822 51.37386362202193 39.82188654233363 C 0.0 **** -0.24
29212 H 107.6414171389665 50.66557814085499 39.01985506557714 H 0.0 **** 0.06
29213 H 108.00993885328917 52.365255634609895 39.39822185578774 H 0.0 **** 0.06
29214 H 108.75018719615946 51.05955343129972 40.35564312807781 H 0.0 **** 0.06
29215 H 107.0105830184945 51.402414092040175 40.51304443396117 H 0.0 **** 0.06
29216 C 5.130121149618034 81.88427133989123 98.81406201019007 C 0.0 **** -0.24
29217 H 4.3061025943841145 81.91528760207113 99.52601220543312 H 0.0 **** 0.06
29218 H 5.216435544613205 80.87909412297974 98.40199612245686 H 0.0 **** 0.06
29219 H 6.058299166486719 82.15064041107844 99.32075508703088 H 0.0 **** 0.06
29220 H 4.939826668941819 82.5930346694967 98.0076400835348 H 0.0 **** 0.06
29221 C 103.71969721089098 55.98346168782542 10.388896716150526 C 0.0 **** -0.24
29222 H 103.19955398053169 56.856726700058644 9.993847319845457 H 0.0 **** 0.06
29223 H 103.05070365571711 55.123329083190555 10.368890687432554 H 0.0 **** 0.06
29224 H 104.0301387596771 56.17956749137899 11.414515661550155 H 0.0 **** 0.06
29225 H 104.59762753311023 55.77644310727452 9.776214552685929 H 0.0 **** 0.06
29226 C 40.1460918945527 105.12978659053584 110.61661260854497 C 0.0 **** -0.24
29227 H 39.31553422173707 105.27342079004961 111.30828589786944 H 0.0 **** 0.06
29228 H 40.08219893478811 104.13487395361756 110.17538671166204 H 0.0 **** 0.06
29229 H 41.08889182690203 105.2298342786014 111.15520291908585 H 0.0 **** 0.06
29230 H 40.095950243111076 105.88088129986869 109.82890502585241 H 0.0 **** 0.06
29231 C 95.40026900530665 43.11637503091882 78.82438322462332 C 0.0 **** -0.24
29232 H 95.07173776508046 42.46032849401807 79.63047248628277 H 0.0 **** 0.06
29233 H 94.68524661804474 43.93092320775764 78.70628151069991 H 0.0 **** 0.06
29234 H 95.46044776289068 42.54847362229456 77.89612990619378 H 0.0 **** 0.06
29235 H 96.38126475491254 43.52529795757323 79.06498471833879 H 0.0 **** 0.06
29236 C 109.74743528037766 106.0090366314869 71.31003144344422 C 0.0 **** -0.24
29237 H 109.0165724030994 106.14716828275094 72.10674019038257 H 0.0 **** 0.06
29238 H 110.73365108055859 105.85168455442809 71.74630249629556 H 0.0 **** 0.06
29239 H 109.76604884036489 106.89669360206503 70.6781965446806 H 0.0 **** 0.06
29240 H 109.47221737419531 105.14168860403304 70.71068914371357 H 0.0 **** 0.06
29241 C 104.23710990478365 58.31165511825563 94.2956716130318 C 0.0 **** -0.24
29242 H 103.8087720551138 59.2847801944954 94.05462591870747 H 0.0 **** 0.06
29243 H 103.81466275339096 57.554358984034394 93.63489727541594 H 0.0 **** 0.06
29244 H 104.0070046266434 58.05996848610607 95.33099868052801 H 0.0 **** 0.06
29245 H 105.31886343372223 58.34789126934936 94.1624986694851 H 0.0 **** 0.06
29246 C 99.7246144860476 97.74181267759622 51.425601616345375 C 0.0 **** -0.24
29247 H 99.40573136174349 96.70123442827025 51.48039359695923 H 0.0 **** 0.06
29248 H 100.60656910398744 97.81897604980583 50.78998020143047 H 0.0 **** 0.06
29249 H 99.9649438395393 98.10122853211556 52.42588295022034 H 0.0 **** 0.06
29250 H 98.9199953432056 98.34649467426783 51.00637198354991 H 0.0 **** 0.06
29251 C 62.337250055937176 52.078556768834034 62.82955344144064 C 0.0 **** -0.24
29252 H 62.04204073192906 51.11885013653733 63.25464685036212 H 0.0 **** 0.06
29253 H 61.527416016320814 52.4679495043942 62.21392711430697 H 0.0 **** 0.06
29254 H 63.22910367077695 51.94368615031243 62.216039894135704 H 0.0 **** 0.06
29255 H 62.55328022400323 52.780786931780085 63.6340523176537 H 0.0 **** 0.06
29256 C 42.859771400484306 108.32982488134712 70.44131428503874 C 0.0 **** -0.24
29257 H 43.83961186591034 108.6792573316585 70.11513890152514 H 0.0 **** 0.06
29258 H 42.76325858811444 107.2656223402114 70.22410239185871 H 0.0 **** 0.06
29259 H 42.08328578860662 108.88088957272285 69.91215036190306 H 0.0 **** 0.06
29260 H 42.754932490176856 108.49215051596755 71.51415534241312 H 0.0 **** 0.06
29261 C 22.12831711265504 31.753249873966013 65.55905120724441 C 0.0 **** -0.24
29262 H 21.117906530093734 31.855532121710155 65.95431504850322 H 0.0 **** 0.06
29263 H 22.64937973326454 30.959458795536875 66.09488068779484 H 0.0 **** 0.06
29264 H 22.66460158574135 32.69275256038273 65.68807189592263 H 0.0 **** 0.06
29265 H 22.07973535065102 31.505789829473514 64.49902855303486 H 0.0 **** 0.06
29266 C 40.750753734992884 77.14982343015022 42.230668700878795 C 0.0 **** -0.24
29267 H 40.607404421169235 76.448240251384 41.40801700013448 H 0.0 **** 0.06
29268 H 39.77871853619678 77.48345283800305 42.59578757356513 H 0.0 **** 0.06
29269 H 41.32253925102833 78.00803875198832 41.880308283039966 H 0.0 **** 0.06
29270 H 41.29316659736651 76.6564901337878 43.038164431178615 H 0.0 **** 0.06
29271 C 106.89728123935501 0.21485860712655835 106.76557308558107 C 0.0 **** -0.24
29272 H 107.39965672236025 0.44137372268035335 105.82453771676683 H 0.0 **** 0.06
29273 H 105.86473734035533 0.5601853563173904 106.71883724782397 H 0.0 **** 0.06
29274 H 107.41359848364134 0.718687559761662 107.58212778404221 H 0.0 **** 0.06
29275 H 106.91303377759927 -0.8614828107600374 106.93480578360055 H 0.0 **** 0.06
29276 C 67.5751977427567 101.02205380655533 9.334765922363658 C 0.0 **** -0.24
29277 H 68.40438927539623 100.7582448600773 9.990886300706222 H 0.0 **** 0.06
29278 H 67.27213941642242 100.14495232834537 8.762627478265358 H 0.0 **** 0.06
29279 H 67.88953132110885 101.81089725253986 8.65178047362457 H 0.0 **** 0.06
29280 H 66.73495655842245 101.37385645309769 9.934707137919986 H 0.0 **** 0.06
29281 C 37.53282494389532 59.60401412089496 26.238291621490475 C 0.0 **** -0.24
29282 H 36.99827979787622 60.16439416362472 27.004649484623314 H 0.0 **** 0.06
29283 H 37.80611980025688 58.62305316788101 26.630850421504647 H 0.0 **** 0.06
29284 H 38.43434453383989 60.14594024097305 25.953589655138273 H 0.0 **** 0.06
29285 H 36.892654259990906 59.48044213038769 25.36509281057903 H 0.0 **** 0.06
29286 C 15.810156168160006 9.850764741806216 93.52453124562184 C 0.0 **** -0.24
29287 H 16.78939444312539 9.372805143611703 93.50138509321819 H 0.0 **** 0.06
29288 H 15.229307049555075 9.450031314148896 94.35480452241245 H 0.0 **** 0.06
29289 H 15.288978889165435 9.654769845031293 92.58764813639478 H 0.0 **** 0.06
29290 H 15.934455115339972 10.926102244524582 93.65177806578166 H 0.0 **** 0.06
29291 C 64.78363098055098 52.25854179532064 15.958909902995629 C 0.0 **** -0.24
29292 H 64.88682257452473 52.90176334777624 15.085475750180649 H 0.0 **** 0.06
29293 H 65.6723802679611 51.6355760258935 16.058649946815763 H 0.0 **** 0.06
29294 H 63.9056882651243 51.623756298603666 15.840716529993529 H 0.0 **** 0.06
29295 H 64.66927353953474 52.87431966601554 16.8513569616851 H 0.0 **** 0.06
29296 C 46.337898742711786 46.05564467659755 12.226333215933934 C 0.0 **** -0.24
29297 H 46.452441902719215 46.41772716406936 11.205332825969094 H 0.0 **** 0.06
29298 H 45.483969891764445 46.54821064084612 12.693234818151254 H 0.0 **** 0.06
29299 H 47.24078730562269 46.27811290037806 12.795269836786446 H 0.0 **** 0.06
29300 H 46.17289128288857 44.97818333351955 12.213397413669625 H 0.0 **** 0.06
29301 C 24.144808314140136 14.795726573425014 49.46475094401666 C 0.0 **** -0.24
29302 H 24.686154629615714 15.469616470717284 48.80079213435937 H 0.0 **** 0.06
29303 H 24.59385572449378 14.82672259559152 50.45776878430058 H 0.0 **** 0.06
29304 H 24.197203359486565 13.780103342520192 49.07262349192234 H 0.0 **** 0.06
29305 H 23.10191492678277 15.108842742614797 49.52724456729891 H 0.0 **** 0.06
29306 C 93.66867443434798 52.80360850784559 65.38897244182789 C 0.0 **** -0.24
29307 H 93.38364040770418 53.51863800374234 66.16046070193806 H 0.0 **** 0.06
29308 H 94.72824426460815 52.565852096036146 65.48640665429883 H 0.0 **** 0.06
29309 H 93.48170406956746 53.235674306810346 64.40601824832208 H 0.0 **** 0.06
29310 H 93.08025222027545 51.89234246771153 65.50226102537465 H 0.0 **** 0.06
29311 C 86.41283940741855 5.953214524236955 9.119950566074849 C 0.0 **** -0.24
29312 H 86.7900891256316 5.255087194045757 9.86668584247704 H 0.0 **** 0.06
29313 H 86.77703336700034 6.95637199574611 9.343480475556476 H 0.0 **** 0.06
29314 H 85.32308746168371 5.949080526985483 9.13696017255603 H 0.0 **** 0.06
29315 H 86.76203486541584 5.652216188294801 8.132225772709617 H 0.0 **** 0.06
29316 C 82.50694610842618 32.985259264385576 45.93882525525083 C 0.0 **** -0.24
29317 H 83.09756151842393 33.89725720572426 45.85483180265501 H 0.0 **** 0.06
29318 H 83.06792207261606 32.24069673306701 46.50418387265074 H 0.0 **** 0.06
29319 H 82.29241122349964 32.59903154056593 44.94204960683217 H 0.0 **** 0.06
29320 H 81.57171037705444 33.204993594259975 46.45289493757994 H 0.0 **** 0.06
29321 C 37.14517504375225 33.472705709016 69.84846614641785 C 0.0 **** -0.24
29322 H 37.538388043481106 32.78835315226773 70.59965840115223 H 0.0 **** 0.06
29323 H 36.943287217792694 34.440232221100416 70.30954157843907 H 0.0 **** 0.06
29324 H 36.222489304221845 33.066582655763696 69.4354531184933 H 0.0 **** 0.06
29325 H 37.87808796043959 33.59578805715506 69.05110166023641 H 0.0 **** 0.06
29326 C 3.5283263669202256 23.018615074813823 98.4824664938939 C 0.0 **** -0.24
29327 H 2.8763644088598994 22.268419983554793 98.93060005729416 H 0.0 **** 0.06
29328 H 2.948492242429481 23.643464252983023 97.80249982598922 H 0.0 **** 0.06
29329 H 4.327135284781519 22.5228938625651 97.93015900410009 H 0.0 **** 0.06
29330 H 3.960588886213671 23.6395404023379 99.26728150105325 H 0.0 **** 0.06
29331 C 79.28937872536535 11.354113814674854 95.42610189944955 C 0.0 **** -0.24
29332 H 79.21897461590576 10.657260919986541 94.59097015448167 H 0.0 **** 0.06
29333 H 78.68143524338791 10.98931438778207 96.25517603964504 H 0.0 **** 0.06
29334 H 78.92769197751022 12.333696191100902 95.11298880022008 H 0.0 **** 0.06
29335 H 80.3287891548604 11.434606039199043 95.74562143723433 H 0.0 **** 0.06
29336 C 52.89784306821511 80.27946360714392 51.79218446839643 C 0.0 **** -0.24
29337 H 52.9121272275832 81.36165281220119 51.92544837581028 H 0.0 **** 0.06
29338 H 52.773668450284504 79.7970069624628 52.76178128773157 H 0.0 **** 0.06
29339 H 53.83660266317736 79.95644885576328 51.34328406114662 H 0.0 **** 0.06
29340 H 52.0691772917516 80.00456132489131 51.13985596048139 H 0.0 **** 0.06
29341 C 54.879058550931404 98.16356318294919 62.41899075352447 C 0.0 **** -0.24
29342 H 53.8895033926172 98.38501942583105 62.82028056515388 H 0.0 **** 0.06
29343 H 55.13288247681385 98.8981876097767 61.65446533021297 H 0.0 **** 0.06
29344 H 54.877466284929994 97.16651305461386 61.98012953618645 H 0.0 **** 0.06
29345 H 55.614375312655625 98.20622514406847 63.22285080285576 H 0.0 **** 0.06
29346 C 20.129264958151612 1.3881711677217057 58.17707921592296 C 0.0 **** -0.24
29347 H 21.09194273930872 1.1599486571381652 57.72024480564315 H 0.0 **** 0.06
29348 H 19.947054230900946 0.7006206367713022 59.00320830135439 H 0.0 **** 0.06
29349 H 19.339332700035932 1.2800091571942573 57.43383111520998 H 0.0 **** 0.06
29350 H 20.138730162361213 2.412106219783235 58.55103264148397 H 0.0 **** 0.06
29351 C 56.53718560329338 71.60603299240715 45.019039546251236 C 0.0 **** -0.24
29352 H 57.00344474767951 72.02097689649723 45.91214964821819 H 0.0 **** 0.06
29353 H 55.83305996790989 72.32906667784958 44.60648755602273 H 0.0 **** 0.06
29354 H 56.00705851118926 70.68910139892036 45.278482220955084 H 0.0 **** 0.06
29355 H 57.305929281014244 71.38342455529587 44.278040592944365 H 0.0 **** 0.06
29356 C 97.45611675822093 4.406236207396731 99.82125689828194 C 0.0 **** -0.24
29357 H 96.83471117469637 3.8445566539556637 99.12403964834898 H 0.0 **** 0.06
29358 H 98.31841535533069 4.813332617349289 99.2918350927447 H 0.0 **** 0.06
29359 H 97.7976012066322 3.744867534300468 100.61691105078926 H 0.0 **** 0.06
29360 H 96.8741275230852 5.221361693000858 100.25020054956967 H 0.0 **** 0.06
29361 C 83.72467957060672 67.02539147389484 70.36009564590391 C 0.0 **** -0.24
29362 H 83.74137363130205 67.04995421848412 69.27075241075796 H 0.0 **** 0.06
29363 H 83.33242542978348 66.06479882187645 70.69533320657732 H 0.0 **** 0.06
29364 H 83.0898843983041 67.82850900216906 70.73254428035094 H 0.0 **** 0.06
29365 H 84.73795640713371 67.15768834515248 70.74145951551415 H 0.0 **** 0.06
29366 C 57.1518448670609 22.63607210684188 2.951003181194366 C 0.0 **** -0.24
29367 H 57.64076642018006 21.71123259500237 3.25611511475946 H 0.0 **** 0.06
29368 H 56.207531845903475 22.401468196248544 2.4565096875713595 H 0.0 **** 0.06
29369 H 57.79781336907229 23.178826308255537 2.2614879441434903 H 0.0 **** 0.06
29370 H 56.95927941445342 23.251330809386786 3.8299104614003987 H 0.0 **** 0.06
29371 C 52.14337241769427 59.30303693582391 58.584011799402305 C 0.0 **** -0.24
29372 H 52.81954837278988 59.125309174861286 57.748196259566896 H 0.0 **** 0.06
29373 H 52.44695752606666 58.69097141365751 59.433073393034306 H 0.0 **** 0.06
29374 H 51.12720145520328 59.03999294786513 58.29045744243123 H 0.0 **** 0.06
29375 H 52.17955692915056 60.35636661440708 58.86301364329353 H 0.0 **** 0.06
29376 C 106.00274952472824 60.9224322015463 57.47244259560079 C 0.0 **** -0.24
29377 H 105.36943277441085 61.80941178830308 57.48713392031214 H 0.0 **** 0.06
29378 H 105.45124942267631 60.090227671496095 57.03513037057622 H 0.0 **** 0.06
29379 H 106.29521426083966 60.66925926955378 58.491968772238856 H 0.0 **** 0.06
29380 H 106.89310150552603 61.121893008567824 56.87796016622058 H 0.0 **** 0.06
29381 C 20.63086364995678 25.6740324102218 82.61435490317893 C 0.0 **** -0.24
29382 H 21.67412155823694 25.66340094227502 82.29989567784826 H 0.0 **** 0.06
29383 H 20.574809595154328 25.49355136373225 83.68866833750882 H 0.0 **** 0.06
29384 H 20.08464770092511 24.89334498725779 82.08611352449867 H 0.0 **** 0.06
29385 H 20.192510746054815 26.644261003862425 82.38488411739867 H 0.0 **** 0.06
29386 C 40.640628129720284 26.483456303534297 27.56330048307145 C 0.0 **** -0.24
29387 H 39.99778885955848 25.68346424078956 27.930813902937004 H 0.0 **** 0.06
29388 H 40.36220301541806 26.73008365026341 26.53788338452414 H 0.0 **** 0.06
29389 H 41.6795596334772 26.155333150394313 27.588225102373052 H 0.0 **** 0.06
29390 H 40.52246357438534 27.36393828442455 28.194623961800588 H 0.0 **** 0.06
29391 C 39.81231019383088 106.27510536930063 56.88818978741273 C 0.0 **** -0.24
29392 H 39.707083084502415 105.43402985835716 57.57386099028113 H 0.0 **** 0.06
29393 H 40.211701444202276 107.13500588213115 57.42683300701714 H 0.0 **** 0.06
29394 H 38.838416894539165 106.5269531813027 56.470097474294306 H 0.0 **** 0.06
29395 H 40.49446932582964 106.00268749093699 56.08174311169631 H 0.0 **** 0.06
29396 C 21.250336756584467 46.75569020185529 24.442956874535284 C 0.0 **** -0.24
29397 H 21.029811540696993 45.72655758135875 24.72668106723205 H 0.0 **** 0.06
29398 H 20.562798014535556 47.42909436677728 24.955513291490732 H 0.0 **** 0.06
29399 H 21.13352030737426 46.86834266423859 23.365281574409437 H 0.0 **** 0.06
29400 H 22.274382892799228 46.99805167609026 24.72524238217784 H 0.0 **** 0.06
29401 C 50.65692399979912 71.30475222991902 82.03389915307264 C 0.0 **** -0.24
29402 H 51.39497629696251 71.18756758813119 81.24033548020147 H 0.0 **** 0.06
29403 H 49.65510851905873 71.26633468711027 81.60587628294097 H 0.0 **** 0.06
29404 H 50.80437966083642 72.26454903670832 82.52821040013791 H 0.0 **** 0.06
29405 H 50.77353284740187 70.50000893301078 82.75990627716943 H 0.0 **** 0.06
29406 C 21.527053784596518 10.760813923261196 27.98941468935257 C 0.0 **** -0.24
29407 H 21.637265547984526 11.30848497642063 28.924476415910817 H 0.0 **** 0.06
29408 H 22.453049350726644 10.826541574817156 27.418238871014722 H 0.0 **** 0.06
29409 H 20.710953921121586 11.192636375339873 27.4093826592528 H 0.0 **** 0.06
29410 H 21.306703934840073 9.715272497556612 28.204204795555185 H 0.0 **** 0.06
29411 C 92.64928808224276 57.686929057778 107.7008434493115 C 0.0 **** -0.24
29412 H 92.99346263832125 57.91168080693945 108.70982917945902 H 0.0 **** 0.06
29413 H 92.22634097962651 58.58584894773425 107.25279937713997 H 0.0 **** 0.06
29414 H 91.88765755363 56.90822560691483 107.74193612026485 H 0.0 **** 0.06
29415 H 93.48969115739327 57.34196086952337 107.09880912038199 H 0.0 **** 0.06
29416 C 51.378836988136015 20.701570169233946 78.74224640569514 C 0.0 **** -0.24
29417 H 50.42315357507539 20.66983653726504 79.26682813797589 H 0.0 **** 0.06
29418 H 52.09605818825236 20.060490242480398 79.25640600369917 H 0.0 **** 0.06
29419 H 51.75057700755579 21.72644016642164 78.72833199592264 H 0.0 **** 0.06
29420 H 51.24307263609998 20.34949991447354 77.7196143549599 H 0.0 **** 0.06
29421 C 18.868314586117492 2.0374966618682606 25.70801533809282 C 0.0 **** -0.24
29422 H 19.912030075269627 2.1186334477464754 26.010854417552082 H 0.0 **** 0.06
29423 H 18.53910142626364 2.984596999910849 25.27962367509562 H 0.0 **** 0.06
29424 H 18.255787228408224 1.7993072561802421 26.578673634291306 H 0.0 **** 0.06
29425 H 18.765259477524694 1.2472202415376614 24.964854169283797 H 0.0 **** 0.06
29426 C 27.279205798089947 3.7832738901814196 48.35438428188826 C 0.0 **** -0.24
29427 H 27.371804913831227 3.7641159682713123 49.440380193919566 H 0.0 **** 0.06
29428 H 27.552054988448845 4.770907955883558 47.98408042345426 H 0.0 **** 0.06
29429 H 26.249763780771048 3.5605161782700634 48.07337026351499 H 0.0 **** 0.06
29430 H 27.943521645888126 3.035348460892692 47.919866377397796 H 0.0 **** 0.06
29431 C 93.00067639635088 62.345936054456104 34.46455231825763 C 0.0 **** -0.24
29432 H 93.85418111460643 62.79462197707505 34.97137013335782 H 0.0 **** 0.06
29433 H 93.22275138284897 62.241096984672595 33.401653310751115 H 0.0 **** 0.06
29434 H 92.1256915321029 62.98368783179836 34.591650345717376 H 0.0 **** 0.06
29435 H 92.79908314068558 61.36325966970884 34.89184970040571 H 0.0 **** 0.06
29436 C 52.1387384662834 109.72360394180315 99.83971856668616 C 0.0 **** -0.24
29437 H 52.24600291094015 110.45046311879112 100.64535548655313 H 0.0 **** 0.06
29438 H 52.002632532153825 110.24680466036106 98.89341528705322 H 0.0 **** 0.06
29439 H 51.27078816245708 109.09287263811358 100.03350209294302 H 0.0 **** 0.06
29440 H 53.0336899651719 109.1041768721524 99.78821506691138 H 0.0 **** 0.06
29441 C 67.53186348814181 110.19416117195881 82.3525229747561 C 0.0 **** -0.24
29442 H 67.80502022468605 110.96342833987393 81.63031791619854 H 0.0 **** 0.06
29443 H 68.28671941355881 109.40732761283132 82.34982945165035 H 0.0 **** 0.06
29444 H 66.56380261232269 109.77059268462759 82.08312056073795 H 0.0 **** 0.06
29445 H 67.46991801347752 110.6352520786156 83.34783566403547 H 0.0 **** 0.06
29446 C 55.11296887007239 40.966892866830676 100.95113366488842 C 0.0 **** -0.24
29447 H 56.19760459480145 40.86834362896235 100.92890641478934 H 0.0 **** 0.06
29448 H 54.70957820337949 40.352050946699535 101.75668204549801 H 0.0 **** 0.06
29449 H 54.69878872988116 40.63612668825459 99.99937675657984 H 0.0 **** 0.06
29450 H 54.84535629056279 42.00952064117584 101.12140269328309 H 0.0 **** 0.06
29451 C 45.86460534445703 87.81073021104802 50.52847705461488 C 0.0 **** -0.24
29452 H 45.043976694288745 88.1068419087025 51.180083601746674 H 0.0 **** 0.06
29453 H 46.33765289439242 88.70045946885688 50.11289842806815 H 0.0 **** 0.06
29454 H 45.48053114399147 87.19092963054845 49.718971697295615 H 0.0 **** 0.06
29455 H 46.59847892889667 87.24442733385004 51.10295978308977 H 0.0 **** 0.06
29456 C 8.387086936422179 41.32001499507609 26.213124036421064 C 0.0 **** -0.24
29457 H 8.580502106264134 41.193348959338294 27.277903813822334 H 0.0 **** 0.06
29458 H 8.710338737251845 42.31358033426477 25.900941440732165 H 0.0 **** 0.06
29459 H 7.319549217443409 41.208977267957266 26.022172236484202 H 0.0 **** 0.06
29460 H 8.937232494050875 40.56623220876875 25.651087525637973 H 0.0 **** 0.06
29461 C 83.33907274275894 59.284470783521215 75.57596008670507 C 0.0 **** -0.24
29462 H 82.80381237544087 58.51554927941595 75.01829457470573 H 0.0 **** 0.06
29463 H 82.97488866141616 60.26815156213502 75.27816845744164 H 0.0 **** 0.06
29464 H 84.40535027989822 59.21074349145039 75.36465656521452 H 0.0 **** 0.06
29465 H 83.17027463980418 59.1422997321921 76.64363810534988 H 0.0 **** 0.06
29466 C 84.84408570796892 30.166458446004185 35.132896416249395 C 0.0 **** -0.24
29467 H 83.90242914228057 30.045884636209905 35.66929425785128 H 0.0 **** 0.06
29468 H 84.73326911248694 30.941989276035883 34.375418815680234 H 0.0 **** 0.06
29469 H 85.11230550227265 29.22530410323094 34.65436814495391 H 0.0 **** 0.06
29470 H 85.62645633982275 30.453523354992 35.835619459594454 H 0.0 **** 0.06
29471 C 31.43504483980803 22.93615987525854 103.79587586020784 C 0.0 **** -0.24
29472 H 32.17875817893105 23.72586631231323 103.90301572399622 H 0.0 **** 0.06
29473 H 30.450321424195295 23.381743036567656 103.65517344792082 H 0.0 **** 0.06
29474 H 31.42892150877674 22.31863823614259 104.69391608701486 H 0.0 **** 0.06
29475 H 31.68213507747214 22.319192306517294 102.93199614651184 H 0.0 **** 0.06
29476 C 67.3784693953473 2.657498711843303 7.3001707520524235 C 0.0 **** -0.24
29477 H 68.2629490546175 2.0758221374623247 7.038295049357657 H 0.0 **** 0.06
29478 H 67.47103974215116 3.663142778927039 6.8908158439972595 H 0.0 **** 0.06
29479 H 67.28941184614922 2.7137188308576867 8.385461876810353 H 0.0 **** 0.06
29480 H 66.49215651771225 2.1757209939621305 6.887738420521941 H 0.0 **** 0.06
29481 C 40.89366928044559 49.71593445457711 110.51068811272354 C 0.0 **** -0.24
29482 H 41.72323205508238 49.633411510976316 109.80709988446566 H 0.0 **** 0.06
29483 H 40.0771016042814 49.07125552691889 110.18596202954107 H 0.0 **** 0.06
29484 H 40.55011762951586 50.74923280154354 110.54651361331898 H 0.0 **** 0.06
29485 H 41.22761188083005 49.4090618133485 111.50178661770167 H 0.0 **** 0.06
29486 C 41.25349195630736 31.688103646986264 80.98157437618772 C 0.0 **** -0.24
29487 H 42.124141409486015 31.358914711954114 80.41445013701636 H 0.0 **** 0.06
29488 H 41.3677609916885 32.739360149489784 81.24612699754141 H 0.0 **** 0.06
29489 H 41.16643655474604 31.09229493132588 81.89087032784659 H 0.0 **** 0.06
29490 H 40.35645463946213 31.560541116875385 80.37563660281833 H 0.0 **** 0.06
29491 C 85.74354983023395 54.30612213402637 52.94897269819967 C 0.0 **** -0.24
29492 H 86.1254451157443 53.417965378436406 53.45125771945857 H 0.0 **** 0.06
29493 H 86.14330166319212 54.35141642113001 51.93584504565729 H 0.0 **** 0.06
29494 H 86.05046883072352 55.195196150950295 53.50131311249663 H 0.0 **** 0.06
29495 H 84.65573890146776 54.261658089103726 52.909793615627905 H 0.0 **** 0.06
29496 C 70.92335917005843 110.1071547265567 58.42203288737841 C 0.0 **** -0.24
29497 H 70.94100987895163 110.49641202922581 57.40400835829337 H 0.0 **** 0.06
29498 H 69.89962468323756 109.84619924657993 58.69267607288833 H 0.0 **** 0.06
29499 H 71.29814623998216 110.86712254990142 59.107427135497915 H 0.0 **** 0.06
29500 H 71.5528916516624 109.21957992772249 58.48246917844966 H 0.0 **** 0.06
29501 C 61.3887334625617 49.4438632491985 41.68814494138772 C 0.0 **** -0.24
29502 H 60.361620551607274 49.08495735463731 41.63684900125122 H 0.0 **** 0.06
29503 H 61.98584251732511 48.94718810268486 40.92364230137516 H 0.0 **** 0.06
29504 H 61.80145111578557 49.22243799046092 42.673272756819905 H 0.0 **** 0.06
29505 H 61.40654243959119 50.52072964544931 41.52098535715016 H 0.0 **** 0.06
29506 C 17.183853655897593 92.89237362892777 88.87814271947174 C 0.0 **** -0.24
29507 H 17.223052093025416 93.63064868639879 88.07726748071349 H 0.0 **** 0.06
29508 H 16.25796147482771 93.01633486430616 89.44032244377246 H 0.0 **** 0.06
29509 H 18.03517972388005 93.03184508241739 89.54354584124516 H 0.0 **** 0.06
29510 H 17.217345181064047 91.8906486477074 88.4502185544932 H 0.0 **** 0.06
29511 C 58.500298790881544 77.37971701715668 19.311320559994726 C 0.0 **** -0.24
29512 H 57.564586135779386 77.93633704189835 19.2555287439086 H 0.0 **** 0.06
29513 H 58.5408655147067 76.65760535053039 18.495272853061834 H 0.0 **** 0.06
29514 H 58.55414555754913 76.85497398854844 20.265892757273974 H 0.0 **** 0.06
29515 H 59.33923377360502 78.070259434181 19.22915023593478 H 0.0 **** 0.06
29516 C 96.27629014397647 30.034493529549493 97.75083758331513 C 0.0 **** -0.24
29517 H 96.06887339436078 30.859279252119066 97.0682274505987 H 0.0 **** 0.06
29518 H 96.86984108857364 30.397792402990575 98.5898512560615 H 0.0 **** 0.06
29519 H 96.82899609181163 29.257480251578613 97.22306185756626 H 0.0 **** 0.06
29520 H 95.33595182017396 29.62472734001949 98.12077715081213 H 0.0 **** 0.06
29521 C 45.5793495785407 100.90894584198048 59.498456150616335 C 0.0 **** -0.24
29522 H 46.28769245876498 101.50094469868283 60.07781134178009 H 0.0 **** 0.06
29523 H 46.11368488266527 100.36454557403835 58.71950371915537 H 0.0 **** 0.06
29524 H 44.842432923923184 101.56874293145329 59.04150612013103 H 0.0 **** 0.06
29525 H 45.07518664009933 100.20127534847335 60.15683898238086 H 0.0 **** 0.06
29526 C 102.22943535005 50.621292522773544 41.571512007803136 C 0.0 **** -0.24
29527 H 101.46778897571005 50.281891945077135 42.27316416915116 H 0.0 **** 0.06
29528 H 102.54938940759872 51.62817896721188 41.84102983181921 H 0.0 **** 0.06
29529 H 101.81677706066618 50.62773713913513 40.56298768876684 H 0.0 **** 0.06
29530 H 103.08443594187577 49.94588104985076 41.610410504418894 H 0.0 **** 0.06
29531 C 3.8204800044613876 80.76953115774057 68.43249917885572 C 0.0 **** -0.24
29532 H 3.48908541103458 81.29081219333423 69.33089022140268 H 0.0 **** 0.06
29533 H 3.9461433841303233 79.70875428498076 68.65355338843574 H 0.0 **** 0.06
29534 H 4.769671580216084 81.18719220001748 68.09985036191961 H 0.0 **** 0.06
29535 H 3.073629476632675 80.89168176724553 67.64725443327552 H 0.0 **** 0.06
29536 C 63.81143854683046 60.96815987987631 0.5793435536829747 C 0.0 **** -0.24
29537 H 64.17014293452982 60.00076609960513 0.9313182447701536 H 0.0 **** 0.06
29538 H 63.3318106074895 60.84508401801011 -0.39215536498474535 H 0.0 **** 0.06
29539 H 64.65287373429041 61.65477525941591 0.48557850226461596 H 0.0 **** 0.06
29540 H 63.09087334597109 61.37048120042007 1.2910057276350813 H 0.0 **** 0.06
29541 C 54.54459438474282 55.37105291629118 110.12582605746306 C 0.0 **** -0.24
29542 H 54.34041329164656 54.70152523657677 109.289917253119 H 0.0 **** 0.06
29543 H 54.37662151473997 56.40222121788125 109.81512720290792 H 0.0 **** 0.06
29544 H 55.580649504378066 55.25037997181758 110.44292632955774 H 0.0 **** 0.06
29545 H 53.87988319200579 55.12855893258575 110.95545336613284 H 0.0 **** 0.06
29546 C 108.5005020111128 56.4720875984965 49.427048788216005 C 0.0 **** -0.24
29547 H 108.27593508896636 56.65670130864328 50.47818354283005 H 0.0 **** 0.06
29548 H 108.495642651551 57.41656984588927 48.883345393235786 H 0.0 **** 0.06
29549 H 107.74668693093643 55.80631087003837 49.00746104204871 H 0.0 **** 0.06
29550 H 109.48384638601758 56.00799730833931 49.34210264013023 H 0.0 **** 0.06
29551 C 43.55764861223733 84.35353606064038 94.2341071338019 C 0.0 **** -0.24
29552 H 42.59793190891716 84.17777235490563 93.74881065876647 H 0.0 **** 0.06
29553 H 44.32549229518537 84.50944030311332 93.47535898570328 H 0.0 **** 0.06
29554 H 43.81951374226287 83.48976247708916 94.84420345500524 H 0.0 **** 0.06
29555 H 43.487737702494 85.23845878146635 94.86623049767809 H 0.0 **** 0.06
29556 C 110.1034543311065 41.62441306952798 66.26694224506542 C 0.0 **** -0.24
29557 H 109.74530660410481 42.378852457405685 65.56661293841495 H 0.0 **** 0.06
29558 H 111.09763401612767 41.293330468522896 65.96613364029093 H 0.0 **** 0.06
29559 H 109.42080121843331 40.77463446566172 66.26560587900761 H 0.0 **** 0.06
29560 H 110.15028970388236 42.05208422624507 67.26878933724367 H 0.0 **** 0.06
29561 C 54.47218149526941 49.94335525589349 51.338679864272706 C 0.0 **** -0.24
29562 H 53.76231399370613 50.7702826645486 51.37061659721812 H 0.0 **** 0.06
29563 H 55.31230159235582 50.21089978874252 50.696602801345705 H 0.0 **** 0.06
29564 H 53.978517000449585 49.0567493722381 50.93987396973745 H 0.0 **** 0.06
29565 H 54.8345711596599 49.73702843760793 52.345484552055495 H 0.0 **** 0.06
29566 C 32.695195132755885 63.367457053841946 39.41662936545263 C 0.0 **** -0.24
29567 H 32.38984933939196 63.22065004126057 38.38027932088603 H 0.0 **** 0.06
29568 H 32.64161685983049 62.41741538080515 39.94979538186473 H 0.0 **** 0.06
29569 H 32.0311347198645 64.08904071103412 39.8921611832755 H 0.0 **** 0.06
29570 H 33.71843162624299 63.741366120004386 39.443233717987496 H 0.0 **** 0.06
29571 C 11.699880094241337 24.96865275462848 37.430177668567644 C 0.0 **** -0.24
29572 H 11.645342356307424 24.564896933324857 38.440903930445195 H 0.0 **** 0.06
29573 H 10.86343287940781 25.649353140251094 37.26556031283378 H 0.0 **** 0.06
29574 H 11.650887166503395 24.1524247715626 36.70887582827504 H 0.0 **** 0.06
29575 H 12.638579609117357 25.508461085628724 37.30507002161249 H 0.0 **** 0.06
29576 C 49.200998962742176 75.47630308760914 70.74906549362277 C 0.0 **** -0.24
29577 H 50.28789241375591 75.47870248529057 70.83903586624649 H 0.0 **** 0.06
29578 H 48.825681124437665 76.49428909264232 70.85227756157923 H 0.0 **** 0.06
29579 H 48.77449939253222 74.84982160621068 71.53330070539445 H 0.0 **** 0.06
29580 H 48.918579830482884 75.08047865983485 69.77414850870923 H 0.0 **** 0.06
29581 C 41.62905280257348 68.74394054442746 39.97517368941567 C 0.0 **** -0.24
29582 H 41.84519015579147 69.22172979006342 40.92976979250335 H 0.0 **** 0.06
29583 H 40.55060962383067 68.62053274107132 39.86641866037223 H 0.0 **** 0.06
29584 H 42.11235346656588 67.76781889271626 39.93888731068512 H 0.0 **** 0.06
29585 H 42.006853848100945 69.36609466691522 39.163526368408725 H 0.0 **** 0.06
29586 C 37.79669790916762 99.84725578637762 13.075902254898757 C 0.0 **** -0.24
29587 H 37.034204013143494 99.40283083269364 12.435272633432081 H 0.0 **** 0.06
29588 H 37.70398707964398 99.44397894447297 14.084590636747663 H 0.0 **** 0.06
29589 H 37.66378261901025 100.9290549441678 13.102526828088653 H 0.0 **** 0.06
29590 H 38.7841644722584 99.61232045549303 12.679251420486477 H 0.0 **** 0.06
29591 C 62.974656151549596 107.4352292001476 79.92791691796384 C 0.0 **** -0.24
29592 H 63.48283285647469 106.85814319522433 79.154872320381 H 0.0 **** 0.06
29593 H 63.69905220650776 108.06497144333815 80.44472230694927 H 0.0 **** 0.06
29594 H 62.509774394585605 106.75599640568083 80.64168889586509 H 0.0 **** 0.06
29595 H 62.209678154106996 108.06160786333504 79.46960900876371 H 0.0 **** 0.06
29596 C 70.64730178562267 3.6347510945712713 70.535904238059 C 0.0 **** -0.24
29597 H 70.29354540402394 2.652237182697178 70.84994025059888 H 0.0 **** 0.06
29598 H 70.11356405952908 3.9419681246093887 69.63568896071072 H 0.0 **** 0.06
29599 H 71.71586629416814 3.5852856231140606 70.32520583141496 H 0.0 **** 0.06
29600 H 70.46628845633111 4.357371790669816 71.33093516927033 H 0.0 **** 0.06
29601 C 2.4128802873425172 68.52479234063124 15.812980873731828 C 0.0 **** -0.24
29602 H 2.376569979137585 67.96732804559832 16.74932263247927 H 0.0 **** 0.06
29603 H 2.2896874884373517 69.58844470770883 16.018467956133012 H 0.0 **** 0.06
29604 H 1.6111385188144567 68.18516100377042 15.157503637150416 H 0.0 **** 0.06
29605 H 3.3743812488338563 68.3566790780446 15.328503287346123 H 0.0 **** 0.06
29606 C 52.54537239196942 65.19455615433702 43.333442912249495 C 0.0 **** -0.24
29607 H 51.94657729317177 65.47447218119135 44.20038708540639 H 0.0 **** 0.06
29608 H 53.59185602101875 65.43442135705016 43.52265033428523 H 0.0 **** 0.06
29609 H 52.198137545356964 65.74590108069697 42.45969382948124 H 0.0 **** 0.06
29610 H 52.444615171003015 64.12452792217317 43.153208977738046 H 0.0 **** 0.06
29611 C 1.370063053342193 84.35179806565503 56.338833026470915 C 0.0 **** -0.24
29612 H 1.4356970776683653 84.0812590757617 55.28438311064166 H 0.0 **** 0.06
29613 H 0.3227998330497144 84.44038094181593 56.625891379972465 H 0.0 **** 0.06
29614 H 1.8745126927922513 85.30468311669938 56.5003830045766 H 0.0 **** 0.06
29615 H 1.8494179935126311 83.57988306069313 56.94237332201101 H 0.0 **** 0.06
29616 C 2.752203514234388 52.09438049202066 48.26375692963887 C 0.0 **** -0.24
29617 H 2.102375723582634 52.95747118685065 48.12004536322816 H 0.0 **** 0.06
29618 H 2.4392532742886424 51.28897671077435 47.59870379733265 H 0.0 **** 0.06
29619 H 2.685163471741973 51.7572068740425 49.29841259482434 H 0.0 **** 0.06
29620 H 3.7810726535827968 52.37282172170414 48.037784673945424 H 0.0 **** 0.06
29621 C 109.29424239990612 59.18579165056718 81.10759151785902 C 0.0 **** -0.24
29622 H 109.67620644850848 58.557276098476564 80.30328039324459 H 0.0 **** 0.06
29623 H 109.91028252935638 59.05103417013646 81.99729976758846 H 0.0 **** 0.06
29624 H 108.26598228119474 58.904807509271166 81.33076559921821 H 0.0 **** 0.06
29625 H 109.3278556840267 60.23080852658168 80.79794711473119 H 0.0 **** 0.06
29626 C 109.20303311107592 37.104052767936565 95.8598071675487 C 0.0 **** -0.24
29627 H 108.44273325393243 37.81687771596438 95.54183167900533 H 0.0 **** 0.06
29628 H 109.43303373785403 36.42603530225301 95.03729953160314 H 0.0 **** 0.06
29629 H 108.83170809540235 36.53262658935677 96.70980159490114 H 0.0 **** 0.06
29630 H 110.1063146435933 37.6421681934668 96.15041185750243 H 0.0 **** 0.06
29631 C 7.845854274964957 87.17587439787158 15.405996115076135 C 0.0 **** -0.24
29632 H 7.35433231364812 87.74315539985551 14.615893503983926 H 0.0 **** 0.06
29633 H 8.925853206106384 87.2157127017847 15.26368323141061 H 0.0 **** 0.06
29634 H 7.51189047307672 86.13914473834075 15.371275863520566 H 0.0 **** 0.06
29635 H 7.590508296263941 87.60760287237031 16.374811263798335 H 0.0 **** 0.06
29636 C 99.98406077161371 28.538540280855983 55.68561120987445 C 0.0 **** -0.24
29637 H 99.52469364821877 29.22386914767705 56.39754090698867 H 0.0 **** 0.06
29638 H 99.23097515365964 27.844032952545177 55.31216456458213 H 0.0 **** 0.06
29639 H 100.77990638029792 27.980671445095908 56.180442422049396 H 0.0 **** 0.06
29640 H 100.4011378399448 29.106082226755063 54.85353572904572 H 0.0 **** 0.06
29641 C 102.57075858277234 58.17060509854315 41.417013124724065 C 0.0 **** -0.24
29642 H 102.87055444258439 59.13650015479385 41.01180964479681 H 0.0 **** 0.06
29643 H 102.57420321827757 58.21736702865661 42.50638598552683 H 0.0 **** 0.06
29644 H 103.27133522396863 57.4044352987745 41.08457824193857 H 0.0 **** 0.06
29645 H 101.56881690783935 57.924190696751225 41.06649419136727 H 0.0 **** 0.06
29646 C 37.80603631472067 97.70851219880865 21.44455238753136 C 0.0 **** -0.24
29647 H 38.18613017734063 98.62720932303787 20.998792435517572 H 0.0 **** 0.06
29648 H 38.32381085743157 96.85284763050122 21.011196415386564 H 0.0 **** 0.06
29649 H 36.737178484440115 97.62487587058241 21.247753914430064 H 0.0 **** 0.06
29650 H 37.97675852628654 97.72972886201093 22.521210432578783 H 0.0 **** 0.06
29651 C 90.86198122267416 14.987518969716149 32.13728963577151 C 0.0 **** -0.24
29652 H 90.6544773325263 16.00833083348664 32.45844693974611 H 0.0 **** 0.06
29653 H 91.82034805220803 14.666270385286523 32.54404760978447 H 0.0 **** 0.06
29654 H 90.89803732613761 14.950634985659974 31.04839190237834 H 0.0 **** 0.06
29655 H 90.0739387979454 14.32675150439374 32.497983697808465 H 0.0 **** 0.06
29656 C 47.43404494707971 84.33533862956988 102.70680358153037 C 0.0 **** -0.24
29657 H 46.841575740766245 84.1651605013342 101.80763652525505 H 0.0 **** 0.06
29658 H 47.83473896846189 85.34905215002055 102.69187220148284 H 0.0 **** 0.06
29659 H 48.25503966485397 83.61991632642903 102.74192170606379 H 0.0 **** 0.06
29660 H 46.802699835678965 84.20725121401095 103.58647780113249 H 0.0 **** 0.06
29661 C 60.64937186726257 15.812170528220008 93.57494418036734 C 0.0 **** -0.24
29662 H 60.228259839079726 15.567507292339371 94.55048010020063 H 0.0 **** 0.06
29663 H 60.061955854157816 15.328417370832739 92.79393708083299 H 0.0 **** 0.06
29664 H 61.67946064655189 15.459175451177032 93.52646417476461 H 0.0 **** 0.06
29665 H 60.62810281554283 16.891542759294936 93.430220780367 H 0.0 **** 0.06
29666 C 39.25479386512012 24.788707785962046 78.70277978553642 C 0.0 **** -0.24
29667 H 38.58418108316772 23.951709481265567 78.89846598955775 H 0.0 **** 0.06
29668 H 38.67973490066976 25.713159284855806 78.66713895896463 H 0.0 **** 0.06
29669 H 39.75735633273166 24.634988361579644 77.74701510945273 H 0.0 **** 0.06
29670 H 39.997581523960434 24.85130517325419 79.49783813310034 H 0.0 **** 0.06
29671 C 104.66747384268268 47.717217704384126 43.67942712011947 C 0.0 **** -0.24
29672 H 104.25995477740574 47.872058315039396 42.680095664049276 H 0.0 **** 0.06
29673 H 105.47968613451295 46.99124783372099 43.63122215102433 H 0.0 **** 0.06
29674 H 103.88310177285376 47.34295765770952 44.33771705102683 H 0.0 **** 0.06
29675 H 105.04726996123236 48.662164505178794 44.067003109698845 H 0.0 **** 0.06
29676 C 38.42354960537827 78.1080769034471 49.71854498699131 C 0.0 **** -0.24
29677 H 38.48659221790615 78.27474792560572 50.794407519118934 H 0.0 **** 0.06
29678 H 39.428156956961914 78.00023748377689 49.308638290264994 H 0.0 **** 0.06
29679 H 37.927538807804524 78.95686199635405 49.24815592702164 H 0.0 **** 0.06
29680 H 37.85278028861819 77.20043702793068 49.52503808423392 H 0.0 **** 0.06
29681 C 68.2941689887491 83.48239517682484 89.64133204956113 C 0.0 **** -0.24
29682 H 67.28718608538725 83.73551067019595 89.30801273494383 H 0.0 **** 0.06
29683 H 69.00341870430259 84.20178969834767 89.23263525517123 H 0.0 **** 0.06
29684 H 68.55016497973384 82.48084715164659 89.294370403973 H 0.0 **** 0.06
29685 H 68.33375002033677 83.51044842725486 90.73092746196473 H 0.0 **** 0.06
29686 C 66.65604813707066 95.05838630063265 57.566876714666876 C 0.0 **** -0.24
29687 H 66.07561850164859 95.79324578417516 58.12519896625208 H 0.0 **** 0.06
29688 H 66.24137840807145 94.95323806088085 56.56480608464151 H 0.0 **** 0.06
29689 H 66.61398992859347 94.09704990786089 58.0803874308164 H 0.0 **** 0.06
29690 H 67.69208060944817 95.38858987729417 57.49989175593995 H 0.0 **** 0.06
29691 C 23.871993207206707 38.5582770155421 7.848622052859943 C 0.0 **** -0.24
29692 H 22.98737649492466 38.73710002253932 7.237180027363387 H 0.0 **** 0.06
29693 H 24.471178547357486 39.46769064503118 7.894974135565125 H 0.0 **** 0.06
29694 H 24.46242949505512 37.755276861932884 7.406647496550942 H 0.0 **** 0.06
29695 H 23.56572543649593 38.27136149335149 8.854920865577512 H 0.0 **** 0.06
29696 C 76.32811450398044 28.54004321457822 41.36841862947334 C 0.0 **** -0.24
29697 H 77.37742546619215 28.828253452234804 41.42913996308272 H 0.0 **** 0.06
29698 H 75.93374549118604 28.81037777748304 40.388345626920625 H 0.0 **** 0.06
29699 H 75.76353365471459 29.057551748448617 42.14428597356593 H 0.0 **** 0.06
29700 H 76.23970680542142 27.46263971449551 41.51130164192665 H 0.0 **** 0.06
29701 C 97.95173288603718 45.59047233047741 109.0510396729986 C 0.0 **** -0.24
29702 H 98.42341740789107 44.93219413754201 109.78125355324302 H 0.0 **** 0.06
29703 H 98.50852390373325 46.5263663803035 108.99366478855687 H 0.0 **** 0.06
29704 H 96.92576558016532 45.79480139112428 109.35545780666507 H 0.0 **** 0.06
29705 H 97.95146570357485 45.10686031429975 108.07422849620922 H 0.0 **** 0.06
29706 C 33.5201119878175 72.45650558505736 66.71778063739902 C 0.0 **** -0.24
29707 H 34.03248835557429 72.07346361172233 65.83543092181696 H 0.0 **** 0.06
29708 H 32.441636444875314 72.41173134923969 66.55928896563125 H 0.0 **** 0.06
29709 H 33.81881478858813 73.49023771191827 66.89181298785667 H 0.0 **** 0.06
29710 H 33.78535512292029 71.8511866727855 67.58450367218978 H 0.0 **** 0.06
29711 C 90.21797824437661 63.10284778540493 62.184745608994575 C 0.0 **** -0.24
29712 H 89.65054199566215 63.46760236821481 63.03987766789146 H 0.0 **** 0.06
29713 H 89.52993875051075 62.780503797883895 61.40232257116952 H 0.0 **** 0.06
29714 H 90.83826398371299 62.261110915200675 62.491439815324696 H 0.0 **** 0.06
29715 H 90.85380572102201 63.90183041079101 61.80300233152309 H 0.0 **** 0.06
29716 C 79.97011035385674 32.562467815228956 77.70005949080519 C 0.0 **** -0.24
29717 H 79.81336114398155 33.12262904393111 76.77695281537888 H 0.0 **** 0.06
29718 H 80.8825166916572 31.97152875503059 77.61461080113139 H 0.0 **** 0.06
29719 H 79.12196994432475 31.900364644343654 77.87138933944095 H 0.0 **** 0.06
29720 H 80.06379100553413 33.25741137851719 78.53440180569805 H 0.0 **** 0.06
29721 C 62.1755689432448 105.76837272646057 90.57043991458903 C 0.0 **** -0.24
29722 H 62.57529131594106 105.27241119614266 89.6858756589323 H 0.0 **** 0.06
29723 H 62.73417595023176 106.68688486209851 90.75428623836183 H 0.0 **** 0.06
29724 H 62.26995207962074 105.10700626510584 91.43154556709541 H 0.0 **** 0.06
29725 H 61.124660944403246 106.00835949624559 90.40888045156134 H 0.0 **** 0.06
29726 C 1.723789867189792 44.23714613173112 72.6272868022189 C 0.0 **** -0.24
29727 H 0.7431006863588392 43.7735973038337 72.52483243466307 H 0.0 **** 0.06
29728 H 2.469215792703409 43.6268545769845 72.11690051217614 H 0.0 **** 0.06
29729 H 1.9795076936070544 44.31475261104055 73.68415499343105 H 0.0 **** 0.06
29730 H 1.703330006480261 45.23312892013158 72.18465103506027 H 0.0 **** 0.06
29731 C 75.16906417330205 94.49958450858823 50.132153529575135 C 0.0 **** -0.24
29732 H 75.72019975521641 95.33352361188773 50.565835248124785 H 0.0 **** 0.06
29733 H 74.11598910614717 94.57967852201412 50.402378618859615 H 0.0 **** 0.06
29734 H 75.57245526580431 93.561211664314 50.51265551478531 H 0.0 **** 0.06
29735 H 75.26980442050683 94.5237497778569 49.04733780939574 H 0.0 **** 0.06
29736 C 82.77482464197163 39.22434470070496 15.51537494756343 C 0.0 **** -0.24
29737 H 82.32744120816875 39.2106889730733 14.520426494348442 H 0.0 **** 0.06
29738 H 83.83698811598845 38.99199141135867 15.438132230423577 H 0.0 **** 0.06
29739 H 82.28451070361155 38.48096863559499 16.143359790665514 H 0.0 **** 0.06
29740 H 82.64901836582538 40.213054520145874 15.955612791703686 H 0.0 **** 0.06
29741 C 27.706933226710078 40.34651204286516 51.40542000763615 C 0.0 **** -0.24
29742 H 27.11326381287637 41.258381853005176 51.33612469135189 H 0.0 **** 0.06
29743 H 27.973650707597017 40.16602535498714 52.446983782021945 H 0.0 **** 0.06
29744 H 28.6138502169037 40.45888249896339 50.812107158311065 H 0.0 **** 0.06
29745 H 27.125800056914613 39.505850614990266 51.026737659730344 H 0.0 **** 0.06
29746 C 8.54929724812166 79.01735116788852 103.05194261075843 C 0.0 **** -0.24
29747 H 8.626304177435877 79.41371871086966 104.06409497314405 H 0.0 **** 0.06
29748 H 9.387104560913095 78.34771229831304 102.85981666275921 H 0.0 **** 0.06
29749 H 8.56861537878274 79.83911790389548 102.33669235338016 H 0.0 **** 0.06
29750 H 7.613258132875098 78.46837365359895 102.94823048353857 H 0.0 **** 0.06
29751 C 55.405970305250264 55.493248988087146 10.701491798043108 C 0.0 **** -0.24
29752 H 54.500283566208964 55.30290771520282 11.278327580065891 H 0.0 **** 0.06
29753 H 56.20928864220491 54.8509015946997 11.06477309134874 H 0.0 **** 0.06
29754 H 55.69582704601959 56.53741042279844 10.815665616504234 H 0.0 **** 0.06
29755 H 55.21778598785943 55.28035779792018 9.649072800379486 H 0.0 **** 0.06
29756 C 66.63494354525042 29.828609996667907 79.69792555695577 C 0.0 **** -0.24
29757 H 67.02267071656885 29.680084970619703 78.68972085176591 H 0.0 **** 0.06
29758 H 67.32304712926862 30.458568893370852 80.26173135987216 H 0.0 **** 0.06
29759 H 66.53532158756153 28.863778716655005 80.1943736985815 H 0.0 **** 0.06
29760 H 65.65925584921648 30.31287328622235 79.64364494890731 H 0.0 **** 0.06
29761 C 72.86577644322074 66.64373883623091 43.032974746691565 C 0.0 **** -0.24
29762 H 73.39050992337758 67.47677085163923 42.56653385530571 H 0.0 **** 0.06
29763 H 73.30040342504293 65.70453981871754 42.6920212589079 H 0.0 **** 0.06
29764 H 71.81171037404755 66.67813808095212 42.75875747527891 H 0.0 **** 0.06
29765 H 72.96144978768751 66.7164502712655 44.11636774744943 H 0.0 **** 0.06
29766 C 110.68279485273837 91.95362043777658 77.34034508116497 C 0.0 **** -0.24
29767 H 110.87426902661616 91.8248823153269 78.4057022392786 H 0.0 **** 0.06
29768 H 110.74501606021357 93.01075795615469 77.08578187604934 H 0.0 **** 0.06
29769 H 109.68569802418125 91.579648534557 77.10360099457706 H 0.0 **** 0.06
29770 H 111.42420330540853 91.395691142596 76.76762422086112 H 0.0 **** 0.06
29771 C 58.528012289389146 27.033345858092616 47.5317846415129 C 0.0 **** -0.24
29772 H 59.49855288798837 27.500639159701223 47.3661687294242 H 0.0 **** 0.06
29773 H 58.115838603752835 27.37982410039791 48.479842891174826 H 0.0 **** 0.06
29774 H 58.64621420649773 25.95060304164653 47.56008626415587 H 0.0 **** 0.06
29775 H 57.85095171877968 27.303634862076365 46.72089277720613 H 0.0 **** 0.06
29776 C 20.086513975975322 19.613576242823388 76.81620329065225 C 0.0 **** -0.24
29777 H 20.73817755580947 20.485954784922324 76.86707567611512 H 0.0 **** 0.06
29778 H 19.426168205554802 19.702858333355778 75.95352669398852 H 0.0 **** 0.06
29779 H 19.490727625513983 19.552409125307232 77.72652570841777 H 0.0 **** 0.06
29780 H 20.693619891286517 18.713364065620887 76.71866768685143 H 0.0 **** 0.06
29781 C 81.49799641495929 47.39916498674347 10.75270263338139 C 0.0 **** -0.24
29782 H 80.6543126094528 47.20372926043143 10.090518924575818 H 0.0 **** 0.06
29783 H 82.1177981912158 48.188424658489964 10.327196273371342 H 0.0 **** 0.06
29784 H 82.09037484524686 46.49127853944634 10.864839638600728 H 0.0 **** 0.06
29785 H 81.12710538070974 47.713737597923966 11.728331998548853 H 0.0 **** 0.06
29786 C 100.973754872771 93.37337737863567 35.065786842065904 C 0.0 **** -0.24
29787 H 100.62285057325153 93.2569409434964 34.04059883941255 H 0.0 **** 0.06
29788 H 100.9102480573867 94.42270389980887 35.3545522977015 H 0.0 **** 0.06
29789 H 102.00940734887033 93.03872814065762 35.13623284805897 H 0.0 **** 0.06
29790 H 100.35253822203987 92.77529527031784 35.73275041974932 H 0.0 **** 0.06
29791 C 50.373673766767226 67.34614417677442 63.449464686580626 C 0.0 **** -0.24
29792 H 49.36069232317806 66.95149187327978 63.53379695136397 H 0.0 **** 0.06
29793 H 50.37847249491592 68.19051088502991 62.76120347559342 H 0.0 **** 0.06
29794 H 51.037387408105175 66.56720355595922 63.07379534011744 H 0.0 **** 0.06
29795 H 50.71837677651791 67.67424369881529 64.429885132072 H 0.0 **** 0.06
29796 C 106.33901291053228 64.12651215930345 101.63909844651175 C 0.0 **** -0.24
29797 H 107.38794648298838 63.940546476204815 101.86897196861321 H 0.0 **** 0.06
29798 H 105.7101296007404 63.58326275268513 102.34431726991033 H 0.0 **** 0.06
29799 H 106.12469137046824 63.78909219740939 100.62498711936172 H 0.0 **** 0.06
29800 H 106.1347341662429 65.19445471933739 101.71768362436819 H 0.0 **** 0.06
29801 C 52.0611926959572 26.789460869813986 19.683351086538153 C 0.0 **** -0.24
29802 H 51.41928350174845 25.974409591727813 19.34988189024918 H 0.0 **** 0.06
29803 H 52.63039095537831 26.4698181876448 20.556047833212517 H 0.0 **** 0.06
29804 H 51.447288823490226 27.65112596681206 19.945564792661514 H 0.0 **** 0.06
29805 H 52.7478075032116 27.062489733070983 18.881909830029286 H 0.0 **** 0.06
29806 C 32.515120928904395 90.13770624470536 46.650419545717526 C 0.0 **** -0.24
29807 H 33.03582150737279 89.20586483690255 46.4296204617969 H 0.0 **** 0.06
29808 H 32.75902823640524 90.87865873332896 45.88856102320601 H 0.0 **** 0.06
29809 H 32.82616519056526 90.50524586043025 47.627811371437545 H 0.0 **** 0.06
29810 H 31.439997173602478 89.9604891635756 46.653841360280126 H 0.0 **** 0.06
29811 C 74.52631107580909 42.67262306713557 41.549629675259666 C 0.0 **** -0.24
29812 H 75.58327687699374 42.87821738455661 41.716734333218966 H 0.0 **** 0.06
29813 H 74.06169145276581 42.37629909843505 42.490140414241125 H 0.0 **** 0.06
29814 H 74.42344374253264 41.86604092189661 40.82339052008882 H 0.0 **** 0.06
29815 H 74.0378890443913 43.56911070784642 41.168705111580465 H 0.0 **** 0.06
29816 C 84.57781771596319 82.11131675609073 7.8629673622519505 C 0.0 **** -0.24
29817 H 83.97563279084298 82.88339702754962 8.342072894390398 H 0.0 **** 0.06
29818 H 84.0455309937239 81.72462247713645 6.993526653383469 H 0.0 **** 0.06
29819 H 84.75678340629199 81.30040529420532 8.569689134011966 H 0.0 **** 0.06
29820 H 85.53017554872861 82.53616124283249 7.547372050552198 H 0.0 **** 0.06
29821 C 89.25830341857753 100.70960623618264 45.133224250510125 C 0.0 **** -0.24
29822 H 89.19936990128275 100.11170962818656 46.043503488896135 H 0.0 **** 0.06
29823 H 88.27125084262073 101.10682097992357 44.89502805828985 H 0.0 **** 0.06
29824 H 89.60683859263 100.08502560242158 44.31109836945623 H 0.0 **** 0.06
29825 H 89.95484257701548 101.53323892502836 45.28485224029521 H 0.0 **** 0.06
29826 C 109.95709163069913 109.54520668746338 22.61540577287778 C 0.0 **** -0.24
29827 H 109.64520634368682 109.87044390998344 23.607404260201093 H 0.0 **** 0.06
29828 H 110.47525998422394 110.36134239814274 22.111888354009295 H 0.0 **** 0.06
29829 H 109.0810802536232 109.25704093561728 22.034625883169042 H 0.0 **** 0.06
29830 H 110.6288724297671 108.69111588020974 22.707786737870833 H 0.0 **** 0.06
29831 C 95.29608824840491 80.98154661881438 61.642563244769974 C 0.0 **** -0.24
29832 H 95.49849660560915 81.590377667474 62.52396290631941 H 0.0 **** 0.06
29833 H 96.22764674925031 80.8037991141876 61.102601709809306 H 0.0 **** 0.06
29834 H 94.59472329231579 81.50449887980096 60.993578047697355 H 0.0 **** 0.06
29835 H 94.86636930326353 80.02831697909133 61.94991255279234 H 0.0 **** 0.06
29836 C 10.260890640246771 0.22170598208711212 50.037781126964916 C 0.0 **** -0.24
29837 H 11.30342182728316 0.009760933257546789 50.27566926497457 H 0.0 **** 0.06
29838 H 9.965739424094807 -0.34987431118605716 49.15763143583516 H 0.0 **** 0.06
29839 H 10.143693677477643 1.286309205850678 49.83637964162543 H 0.0 **** 0.06
29840 H 9.631972492536079 -0.059865208817365456 50.88251976989616 H 0.0 **** 0.06
29841 C 90.19839478922819 55.08864282838702 51.13869296993977 C 0.0 **** -0.24
29842 H 89.734625718454 54.63452541716316 50.26322432980277 H 0.0 **** 0.06
29843 H 90.02270967740839 56.16422778859283 51.1266324496039 H 0.0 **** 0.06
29844 H 91.27099668959411 54.894905330504336 51.1235706742259 H 0.0 **** 0.06
29845 H 89.76572921499496 54.65991524736156 52.04328677600279 H 0.0 **** 0.06
29846 C 79.4737192426939 62.811147801746856 42.33754654532453 C 0.0 **** -0.24
29847 H 80.17075293590693 62.23067775276577 41.733727657609975 H 0.0 **** 0.06
29848 H 79.88762209995193 63.80459219679888 42.51415474900756 H 0.0 **** 0.06
29849 H 79.31547898007204 62.30887603434965 43.29179589062244 H 0.0 **** 0.06
29850 H 78.52412596969171 62.90002697188517 41.81160192146831 H 0.0 **** 0.06
29851 C 107.9734295100394 69.16133335631736 98.97386606634657 C 0.0 **** -0.24
29852 H 108.54682059655724 68.2352344328454 98.9971065704084 H 0.0 **** 0.06
29853 H 107.48981462842934 69.31283652278387 99.93931477555404 H 0.0 **** 0.06
29854 H 107.21516470220263 69.10014268131673 98.1934502175907 H 0.0 **** 0.06
29855 H 108.64196195601625 69.99708629036547 98.76700587423211 H 0.0 **** 0.06
29856 C 70.47806147335272 24.91576810819072 16.330137263722108 C 0.0 **** -0.24
29857 H 70.18628057473636 25.26374044346369 15.339678860284693 H 0.0 **** 0.06
29858 H 71.44897720581481 24.42306870631205 16.270725861375 H 0.0 **** 0.06
29859 H 69.73431161485273 24.210211797319232 16.70031312326475 H 0.0 **** 0.06
29860 H 70.54272295952298 25.76512428695196 17.009459465231387 H 0.0 **** 0.06
29861 C 65.22081376666647 76.46651330728042 94.66957901016013 C 0.0 **** -0.24
29862 H 65.29175444064417 75.4295644684596 94.33898358830456 H 0.0 **** 0.06
29863 H 64.21880737229232 76.84427646498364 94.46629371483408 H 0.0 **** 0.06
29864 H 65.95356381623809 77.06964364183284 94.13275787183477 H 0.0 **** 0.06
29865 H 65.41915614423183 76.52013394254419 95.74001296775168 H 0.0 **** 0.06
29866 C 11.435742601233112 72.33405998744229 105.91622770451552 C 0.0 **** -0.24
29867 H 12.434906430724297 71.89804660733756 105.945171872782 H 0.0 **** 0.06
29868 H 11.421437253683717 73.24733688894395 106.51104396955525 H 0.0 **** 0.06
29869 H 10.716967807694694 71.62350509197353 106.32319726182946 H 0.0 **** 0.06
29870 H 11.17267240388421 72.5680308219539 104.88482117272895 H 0.0 **** 0.06
29871 C 101.44625643977434 7.573958308410795 47.94382717854313 C 0.0 **** -0.24
29872 H 100.66625599361276 7.7152322709964665 47.19657846843995 H 0.0 **** 0.06
29873 H 102.0342044794051 8.488887902422903 48.03153003794813 H 0.0 **** 0.06
29874 H 102.09523541393185 6.752344429509947 47.640872310670886 H 0.0 **** 0.06
29875 H 100.98970645737444 7.340945870002088 48.9057190862834 H 0.0 **** 0.06
29876 C 10.86439810506096 0.02942281625504961 98.32975261999323 C 0.0 **** -0.24
29877 H 10.917850617425646 0.5357610209927088 99.29294062138487 H 0.0 **** 0.06
29878 H 11.792209411442837 -0.5148166785512842 98.15403046975626 H 0.0 **** 0.06
29879 H 10.719070277313943 0.7656746726466963 97.53909987124887 H 0.0 **** 0.06
29880 H 10.027668278353895 -0.6700652252244197 98.3326636993594 H 0.0 **** 0.06
29881 C 17.363946024091774 26.020278275881353 36.96002465718112 C 0.0 **** -0.24
29882 H 17.12286075328535 25.02981517767172 36.57468006944285 H 0.0 **** 0.06
29883 H 16.982587322036238 26.11790817873638 37.976325626729874 H 0.0 **** 0.06
29884 H 16.904726327151423 26.77907929535968 36.32496866922375 H 0.0 **** 0.06
29885 H 18.44557481776451 26.155958759573984 36.962613595798416 H 0.0 **** 0.06
29886 C 90.17880860412691 15.726971081517888 45.167996546322485 C 0.0 **** -0.24
29887 H 89.4652338976139 15.832554597097783 44.35015729175505 H 0.0 **** 0.06
29888 H 89.70939169639144 15.187794360104192 45.9908938471423 H 0.0 **** 0.06
29889 H 90.48922524874317 16.713864880207836 45.509204401111134 H 0.0 **** 0.06
29890 H 91.05048739417333 15.171782068862854 44.81957862638943 H 0.0 **** 0.06
29891 C 10.998081873928356 89.34083392954204 104.6382821223687 C 0.0 **** -0.24
29892 H 10.384606064468144 88.75132114038831 103.95601905164322 H 0.0 **** 0.06
29893 H 10.421433252150067 90.191102180467 105.00230134519123 H 0.0 **** 0.06
29894 H 11.883557756982498 89.69970069347414 104.11192109714843 H 0.0 **** 0.06
29895 H 11.303125210762943 88.72028535460959 105.48089043083851 H 0.0 **** 0.06
29896 C 37.4900544737163 49.72937205381804 45.11980089489012 C 0.0 **** -0.24
29897 H 37.70383863033726 49.82462666367824 44.055257978069704 H 0.0 **** 0.06
29898 H 37.343554045251665 50.72067730991714 45.550941640377886 H 0.0 **** 0.06
29899 H 38.32545830460256 49.23687794600654 45.61589428053236 H 0.0 **** 0.06
29900 H 36.585383219963546 49.13629984404162 45.25683027349936 H 0.0 **** 0.06
29901 C 101.23087443373659 45.23081271426719 32.13648764565423 C 0.0 **** -0.24
29902 H 101.53848521567225 46.18966574105795 31.720836174309078 H 0.0 **** 0.06
29903 H 102.02160597312998 44.84325494626407 32.77893090796437 H 0.0 **** 0.06
29904 H 101.04175428269102 44.526665487477544 31.326135258595727 H 0.0 **** 0.06
29905 H 100.32048074055162 45.36448092256455 32.722038615465145 H 0.0 **** 0.06
29906 C 106.32031583978167 73.02809344778188 10.592871768762848 C 0.0 **** -0.24
29907 H 107.05213261630871 72.66483848109891 9.871130275874407 H 0.0 **** 0.06
29908 H 105.49128608171593 72.32358030769757 10.654900762071861 H 0.0 **** 0.06
29909 H 105.94703978285331 74.00111509529955 10.272467923803617 H 0.0 **** 0.06
29910 H 106.79134821042864 73.12466226848846 11.571444063260287 H 0.0 **** 0.06
29911 C 16.10063307326874 78.51767381418496 36.7965049248985 C 0.0 **** -0.24
29912 H 15.692371723628838 77.90411985707192 37.5989436391622 H 0.0 **** 0.06
29913 H 15.442901696599861 79.36779883440751 36.618916762323636 H 0.0 **** 0.06
29914 H 16.178961761958178 77.92184310815846 35.88789772242086 H 0.0 **** 0.06
29915 H 17.09020106367973 78.87667590707396 37.081781093181405 H 0.0 **** 0.06
29916 C 108.35107917873209 40.20706583165277 88.14930812630739 C 0.0 **** -0.24
29917 H 108.17952172247053 39.31128116135411 88.74514663988884 H 0.0 **** 0.06
29918 H 108.37555876711713 41.07922668291137 88.80379266168569 H 0.0 **** 0.06
29919 H 107.54669741843028 40.31980449160734 87.42287803555026 H 0.0 **** 0.06
29920 H 109.30390423402608 40.11783120618173 87.6264741351884 H 0.0 **** 0.06
29921 C 22.574823580728406 66.81178348387792 67.45012726546202 C 0.0 **** -0.24
29922 H 22.99948197299571 66.1392793386716 66.70440735415706 H 0.0 **** 0.06
29923 H 23.341379494817403 67.0751713628635 68.18019074327934 H 0.0 **** 0.06
29924 H 21.745894711772564 66.3165868552752 67.955793121448 H 0.0 **** 0.06
29925 H 22.21392954125787 67.7160530524149 66.95986837314814 H 0.0 **** 0.06
29926 C 79.8863608598831 18.827975871663966 69.65755408270952 C 0.0 **** -0.24
29927 H 80.31816116216041 18.362192976973688 68.7713241118452 H 0.0 **** 0.06
29928 H 79.17651404220447 19.596756522485265 69.35405040274964 H 0.0 **** 0.06
29929 H 80.67934902679505 19.279597410322793 70.25309119513207 H 0.0 **** 0.06
29930 H 79.37268528362381 18.071764269307124 70.25082225617355 H 0.0 **** 0.06
29931 C 90.50918815789527 43.400827037707074 87.18988888335736 C 0.0 **** -0.24
29932 H 90.26631133393767 42.353549802104624 87.37164698569319 H 0.0 **** 0.06
29933 H 91.13058490664261 43.479810387864575 86.298244667544 H 0.0 **** 0.06
29934 H 91.0502538881309 43.80231802836789 88.04694991489893 H 0.0 **** 0.06
29935 H 89.58898889184093 43.966000877659496 87.0436987815051 H 0.0 **** 0.06
29936 C 31.599866075696788 33.78596649357962 16.160498379157104 C 0.0 **** -0.24
29937 H 31.667940727480946 32.91838012553876 16.817262032634403 H 0.0 **** 0.06
29938 H 31.233711997983406 34.64120333948631 16.727425006102578 H 0.0 **** 0.06
29939 H 30.912332672029393 33.569099985193475 15.342385602464901 H 0.0 **** 0.06
29940 H 32.58626496872093 34.01208732216759 15.755816633395568 H 0.0 **** 0.06
29941 C 85.49759534637802 48.02757870519576 81.082255611015 C 0.0 **** -0.24
29942 H 86.19238549883099 47.34288172285746 80.59466923138154 H 0.0 **** 0.06
29943 H 85.84792442887111 48.240818707356695 82.09223926215947 H 0.0 **** 0.06
29944 H 84.50965256445484 47.56953031143738 81.12901517201641 H 0.0 **** 0.06
29945 H 85.44281910854885 48.955330606834636 80.5126928789773 H 0.0 **** 0.06
29946 C 4.001010319438732 60.81127557236995 96.53440065397838 C 0.0 **** -0.24
29947 H 3.0668554197756475 60.541197016512385 97.02776256342615 H 0.0 **** 0.06
29948 H 4.054088970022992 60.32069909977733 95.5621418680982 H 0.0 **** 0.06
29949 H 4.841749703475109 60.49141112621801 97.14985637774629 H 0.0 **** 0.06
29950 H 4.040284301499357 61.89162676448291 96.39875944563829 H 0.0 **** 0.06
29951 C 108.95694732279506 99.27890615509409 80.45103166381068 C 0.0 **** -0.24
29952 H 108.26197531381654 98.53700209611372 80.84401511483293 H 0.0 **** 0.06
29953 H 108.54747514745634 100.27810811664699 80.60602137169133 H 0.0 **** 0.06
29954 H 109.10526047403143 99.10799671457016 79.38511709509316 H 0.0 **** 0.06
29955 H 109.91099883726213 99.19315041875927 80.96949796589217 H 0.0 **** 0.06
29956 C 57.61552119246579 18.90264218415396 67.34635462133518 C 0.0 **** -0.24
29957 H 58.26350973501735 19.089903279177662 68.20222425564326 H 0.0 **** 0.06
29958 H 56.74228390897025 18.334446764725413 67.66852134532635 H 0.0 **** 0.06
29959 H 58.16213072174605 18.333573372332836 66.59430179949676 H 0.0 **** 0.06
29960 H 57.29322159535343 19.852386035176636 66.92014423791427 H 0.0 **** 0.06
29961 C 55.95074190651129 92.6047993262471 53.47454247009608 C 0.0 **** -0.24
29962 H 56.86204940868275 92.48851138060165 52.889308840221986 H 0.0 **** 0.06
29963 H 56.200472091543226 92.99166898575209 54.46305472985125 H 0.0 **** 0.06
29964 H 55.45899183586313 91.6374783119191 53.57649170232867 H 0.0 **** 0.06
29965 H 55.28079274096689 93.30075224192299 52.97028623159696 H 0.0 **** 0.06
29966 C 29.701657433017488 36.51742985240571 100.78737656902328 C 0.0 **** -0.24
29967 H 30.655494019635796 37.04447255056155 100.77466933122206 H 0.0 **** 0.06
29968 H 28.896331918934592 37.22737488994475 100.98083635066055 H 0.0 **** 0.06
29969 H 29.714799075038854 35.76038957081316 101.57231166608354 H 0.0 **** 0.06
29970 H 29.538618102006097 36.03725582117012 99.82185035354695 H 0.0 **** 0.06
29971 C 1.0626395745992712 43.33303988707553 110.47919511681408 C 0.0 **** -0.24
29972 H 0.8890691929300303 43.69150789018937 111.49381955198297 H 0.0 **** 0.06
29973 H 0.20069177841763786 42.755550481463786 110.14512070535002 H 0.0 **** 0.06
29974 H 1.951103408959609 42.70128209382233 110.46616187869893 H 0.0 **** 0.06
29975 H 1.211675179029573 44.183291632188116 109.81362686994169 H 0.0 **** 0.06
29976 C 57.25452886697292 12.885306044761364 11.5779626708266 C 0.0 **** -0.24
29977 H 57.638428359947056 11.878252120387785 11.417014631976631 H 0.0 **** 0.06
29978 H 56.7455643127098 12.929994716580524 12.541501878453243 H 0.0 **** 0.06
29979 H 56.552031657505125 13.137391733697967 10.783940518328944 H 0.0 **** 0.06
29980 H 58.082297380783245 13.594609826903067 11.569466897919181 H 0.0 **** 0.06
29981 C 73.48202716002834 85.56507446819697 78.27973112110718 C 0.0 **** -0.24
29982 H 74.01866351409373 85.69031568350346 77.33975838292167 H 0.0 **** 0.06
29983 H 72.4991231275534 85.13593188177768 78.08263447998783 H 0.0 **** 0.06
29984 H 73.36468380678909 86.53454849546489 78.76365401374943 H 0.0 **** 0.06
29985 H 74.04425529309958 84.89753094833398 78.9333288166275 H 0.0 **** 0.06
29986 C 81.55041322845057 33.90184065766664 100.23073744227757 C 0.0 **** -0.24
29987 H 82.38514752286102 34.088576867599784 99.55610501571951 H 0.0 **** 0.06
29988 H 81.84857966234216 33.17184835005946 100.9840745520532 H 0.0 **** 0.06
29989 H 80.70407249297239 33.5143893322994 99.66356501577484 H 0.0 **** 0.06
29990 H 81.26351233462515 34.833012807025796 100.72049666398362 H 0.0 **** 0.06
29991 C 37.03172106910981 83.7803399345202 1.9399750804283586 C 0.0 **** -0.24
29992 H 36.01989201662644 83.85341669999454 1.5404384486554292 H 0.0 **** 0.06
29993 H 37.748129360514014 83.78968337255186 1.1188888716755034 H 0.0 **** 0.06
29994 H 37.13347773935334 82.85096826013859 2.501175267011355 H 0.0 **** 0.06
29995 H 37.22281208023935 84.62634561888525 2.6000942621325542 H 0.0 **** 0.06
29996 C 35.91370827079368 69.07625190795976 17.882303803852096 C 0.0 **** -0.24
29997 H 36.80238917932232 69.68435382370481 17.71411337323167 H 0.0 **** 0.06
29998 H 35.89358180243565 68.25666070375075 17.16338589543585 H 0.0 **** 0.06
29999 H 35.02325826187476 69.69208485267531 17.755942027916262 H 0.0 **** 0.06
30000 H 35.935890082653884 68.67280859842924 18.894322164198343 H 0.0 **** 0.06
30001 C 106.87705977245446 43.22708924466545 105.24457450787366 C 0.0 **** -0.24
30002 H 105.87584468962058 43.38666549903837 104.84235493117583 H 0.0 **** 0.06
30003 H 106.82924479083673 43.192133093851936 106.33287755263932 H 0.0 **** 0.06
30004 H 107.52674550345375 44.04535002550975 104.93528752634745 H 0.0 **** 0.06
30005 H 107.27312990295289 42.2844125515748 104.86728970383581 H 0.0 **** 0.06
30006 C 66.55990512473295 29.744513086246627 83.50050890129177 C 0.0 **** -0.24
30007 H 65.8394981407007 29.107431482354684 84.01320912552535 H 0.0 **** 0.06
30008 H 66.12445913871801 30.730652954474067 83.34214022307262 H 0.0 **** 0.06
30009 H 66.816168621972 29.3004281666216 82.53834396577406 H 0.0 **** 0.06
30010 H 67.45959927238266 29.83733329025381 84.10940102474683 H 0.0 **** 0.06
30011 C 74.04539640613055 50.1528052127922 65.56389134051793 C 0.0 **** -0.24
30012 H 74.11823728202765 51.21825343486978 65.34472919613637 H 0.0 **** 0.06
30013 H 73.76961467071342 50.01628032014628 66.61027855193353 H 0.0 **** 0.06
30014 H 75.00769970759515 49.67748213582104 65.37643998748197 H 0.0 **** 0.06
30015 H 73.28645573377324 49.70215878397545 64.92587763777692 H 0.0 **** 0.06
30016 C 48.56899387306253 1.076050479795958 106.67683404692141 C 0.0 **** -0.24
30017 H 48.63120739911566 2.0975503110988996 107.05397643028004 H 0.0 **** 0.06
30018 H 48.656404073457615 0.3769884931786889 107.50939431321552 H 0.0 **** 0.06
30019 H 49.377492089383864 0.9008451830811275 105.96796846914418 H 0.0 **** 0.06
30020 H 47.6103172305204 0.9307840345761802 106.17913185176069 H 0.0 **** 0.06
30021 C 12.09047130964472 87.28296443333895 43.80808173974066 C 0.0 **** -0.24
30022 H 11.53196907291247 86.90081520052763 42.953396438201025 H 0.0 **** 0.06
30023 H 13.159194210374736 87.20731360586183 43.60717117930445 H 0.0 **** 0.06
30024 H 11.845514080695807 86.6960497673893 44.69329180577832 H 0.0 **** 0.06
30025 H 11.824586330106456 88.32564446232448 43.97777910200309 H 0.0 **** 0.06
30026 C 91.88691542882805 108.03609430144593 17.68527624065848 C 0.0 **** -0.24
30027 H 90.83689840698717 107.75741562958126 17.590940492059502 H 0.0 **** 0.06
30028 H 92.51321278061042 107.18257065571146 17.428033775479605 H 0.0 **** 0.06
30029 H 92.09005742734136 108.34058662834337 18.712318361527593 H 0.0 **** 0.06
30030 H 92.10408479076845 108.86427152890263 17.010219419287438 H 0.0 **** 0.06
30031 C 26.033355123939458 27.002359639649512 49.50002077833659 C 0.0 **** -0.24
30032 H 26.473972368404873 26.932925526341933 48.50582359272056 H 0.0 **** 0.06
30033 H 26.037547420194926 26.016639104975525 49.96798799121308 H 0.0 **** 0.06
30034 H 25.00774403550264 27.361636793364198 49.41804192392132 H 0.0 **** 0.06
30035 H 26.614090016153682 27.695905489061374 50.107481747899016 H 0.0 **** 0.06
30036 C 77.78557864622661 0.4061247892945108 65.04819126228145 C 0.0 **** -0.24
30037 H 77.4959115112197 -0.6159471449608347 64.80627889910056 H 0.0 **** 0.06
30038 H 77.67013694665883 1.0354624409622533 64.16535599985701 H 0.0 **** 0.06
30039 H 78.82666757822908 0.4207176302200404 65.3725470483077 H 0.0 **** 0.06
30040 H 77.15054863650079 0.7829175755317124 65.85009264261538 H 0.0 **** 0.06
30041 C 106.43383125297368 74.05870823504449 58.24822134301064 C 0.0 **** -0.24
30042 H 106.99255175701425 73.47716145584172 57.51434157350298 H 0.0 **** 0.06
30043 H 105.99432292711961 74.92993811916409 57.761945000767035 H 0.0 **** 0.06
30044 H 107.10704101574264 74.38492789098314 59.04033877862436 H 0.0 **** 0.06
30045 H 105.64299064810862 73.44171542362176 58.67374771568235 H 0.0 **** 0.06
30046 C 18.163299097952002 110.42182458816026 29.497542985271522 C 0.0 **** -0.24
30047 H 17.46184469039921 111.03807915051917 28.935133205133752 H 0.0 **** 0.06
30048 H 19.119977770985386 110.93942889799129 29.576381365535283 H 0.0 **** 0.06
30049 H 18.30575038462036 109.471375010853 28.981712542762452 H 0.0 **** 0.06
30050 H 17.76545957830449 110.23741994672832 30.494712631074776 H 0.0 **** 0.06
30051 C 100.45611520338349 72.53359832144912 14.508058052064598 C 0.0 **** -0.24
30052 H 100.47819098777774 73.62304544093276 14.56081664482727 H 0.0 **** 0.06
30053 H 101.46325565722475 72.14266432235436 14.656841473403873 H 0.0 **** 0.06
30054 H 100.08782681201535 72.22543671903755 13.528959550257014 H 0.0 **** 0.06
30055 H 99.79655480129952 72.14538660917707 15.284017110959127 H 0.0 **** 0.06
30056 C 78.36553747844312 22.60716318508122 8.100273927262492 C 0.0 **** -0.24
30057 H 79.13730995381064 23.27692422883223 7.720446148671897 H 0.0 **** 0.06
30058 H 77.42441944637699 23.150869863406854 8.1892496906691 H 0.0 **** 0.06
30059 H 78.66140762556111 22.230656898003048 9.079088806097218 H 0.0 **** 0.06
30060 H 78.23920293855198 21.771444252052532 7.411662858237889 H 0.0 **** 0.06
30061 C 72.51678491165964 95.3474073311032 69.42694324498473 C 0.0 **** -0.24
30062 H 73.2855270044285 95.49407597395536 68.66847925918569 H 0.0 **** 0.06
30063 H 71.79954470347762 96.16776654909239 69.38020948161159 H 0.0 **** 0.06
30064 H 72.97943815665869 95.32630904649073 70.41385691326127 H 0.0 **** 0.06
30065 H 72.00260471398552 94.40391351215649 69.24548570490026 H 0.0 **** 0.06
30066 C 35.14155955848216 67.19423772963471 45.888017058704456 C 0.0 **** -0.24
30067 H 34.82798145094603 66.50171519388716 45.105304363533165 H 0.0 **** 0.06
30068 H 34.85177947212375 66.79714891169205 46.860971175563385 H 0.0 **** 0.06
30069 H 34.661187397519654 68.15990140913364 45.73135193165958 H 0.0 **** 0.06
30070 H 36.22340724312102 67.31636242541558 45.85196428345985 H 0.0 **** 0.06
30071 C 68.05356279299201 47.10714429511233 21.66174798380624 C 0.0 **** -0.24
30072 H 67.69605861174335 46.34213462989524 20.973522269399805 H 0.0 **** 0.06
30073 H 69.05551387621267 46.847711694986415 22.005127563573847 H 0.0 **** 0.06
30074 H 67.38105827561515 47.16871078017811 22.518147448249586 H 0.0 **** 0.06
30075 H 68.08160122276956 48.06993429760846 21.15192451668899 H 0.0 **** 0.06
30076 C 2.405951015652664 18.076809347482026 98.340842039666 C 0.0 **** -0.24
30077 H 2.2776383973616614 18.49688004027479 97.34377776668786 H 0.0 **** 0.06
30078 H 1.7418648894357291 18.58697509972575 99.03840511386389 H 0.0 **** 0.06
30079 H 3.43978748581468 18.20838446363416 98.6606574381425 H 0.0 **** 0.06
30080 H 2.1641299147289903 17.013308972602772 98.32056074215116 H 0.0 **** 0.06
30081 C 8.590878723527297 66.65885844693577 34.535878140985915 C 0.0 **** -0.24
30082 H 9.145998412154498 65.72216250200631 34.52441304283607 H 0.0 **** 0.06
30083 H 8.719169968673214 67.14578241473907 35.50300438776512 H 0.0 **** 0.06
30084 H 7.5329250916012995 66.45660485197419 34.36755301488802 H 0.0 **** 0.06
30085 H 8.96486636061013 67.31288978840348 33.74725018267145 H 0.0 **** 0.06
30086 C 23.052242751421545 102.24567631399908 90.7261388267188 C 0.0 **** -0.24
30087 H 22.82259387746899 102.32345802251635 89.66389964275908 H 0.0 **** 0.06
30088 H 22.85755236376525 101.2282726850287 91.0657581035955 H 0.0 **** 0.06
30089 H 22.42625589530371 102.94163767194028 91.28478807846096 H 0.0 **** 0.06
30090 H 24.101997524349997 102.48881684385927 90.88892490124039 H 0.0 **** 0.06
30091 C 70.40937005691677 102.61504154228088 49.60705649059878 C 0.0 **** -0.24
30092 H 71.30702648985545 103.16805865007795 49.32866505814394 H 0.0 **** 0.06
30093 H 69.74929513487835 102.53600437105071 48.742150108101725 H 0.0 **** 0.06
30094 H 69.89390909126125 103.14081006334519 50.41074871059044 H 0.0 **** 0.06
30095 H 70.68760929073264 101.61706544505005 49.943881824655705 H 0.0 **** 0.06
30096 C 24.971207951859384 80.90463239758027 5.526942271122209 C 0.0 **** -0.24
30097 H 25.203931413260193 79.86985374559818 5.777975447747949 H 0.0 **** 0.06
30098 H 24.572186186524135 80.95162746708036 4.513651182540372 H 0.0 **** 0.06
30099 H 25.87676421518617 81.50691162684171 5.589968039408234 H 0.0 **** 0.06
30100 H 24.22918675654563 81.28901382923142 6.227624975871038 H 0.0 **** 0.06
30101 C 27.047176782694116 65.28093849592534 44.28102806580475 C 0.0 **** -0.24
30102 H 26.426937901599114 65.17321173069661 45.17023971143263 H 0.0 **** 0.06
30103 H 27.81768734434248 64.50927004711554 44.279591232928425 H 0.0 **** 0.06
30104 H 27.517942259495996 66.26418661127735 44.283208968539554 H 0.0 **** 0.06
30105 H 26.42700258496447 65.17755364265395 43.39088187199252 H 0.0 **** 0.06
30106 C 69.40628847357087 14.85536348560683 28.35596375184376 C 0.0 **** -0.24
30107 H 69.0206583487693 15.81686401289177 28.69252844483421 H 0.0 **** 0.06
30108 H 70.48791186468182 14.919935746854975 28.233028608677643 H 0.0 **** 0.06
30109 H 68.94736370957052 14.593609757060904 27.40211217981502 H 0.0 **** 0.06
30110 H 69.16900244398633 14.089910888754076 29.09536853686518 H 0.0 **** 0.06
30111 C 22.413814086564567 4.171477551639086 101.89757871718695 C 0.0 **** -0.24
30112 H 21.657114818783022 4.196797975671103 101.11343534591182 H 0.0 **** 0.06
30113 H 22.414275848518855 3.1900963345758697 102.37097113418258 H 0.0 **** 0.06
30114 H 22.18929791077291 4.934651945088561 102.6435788022639 H 0.0 **** 0.06
30115 H 23.39425850819641 4.366518860520728 101.46284044405752 H 0.0 **** 0.06
30116 C 16.42690310938575 90.82569546241882 56.129033676239715 C 0.0 **** -0.24
30117 H 16.38438719789666 91.21053165509159 55.10958123079348 H 0.0 **** 0.06
30118 H 15.645873102380346 91.29556272456512 56.726972324032545 H 0.0 **** 0.06
30119 H 17.40175794802698 91.05115717375031 56.56232207081234 H 0.0 **** 0.06
30120 H 16.274953133675968 89.74640033039793 56.116346835420245 H 0.0 **** 0.06
30121 C 17.210638966354225 87.1536494071729 30.5454027622624 C 0.0 **** -0.24
30122 H 17.586528876372142 86.87716401614313 29.560652893481432 H 0.0 **** 0.06
30123 H 17.64120966425807 88.11061669111655 30.84245543348277 H 0.0 **** 0.06
30124 H 17.491681378233295 86.38926203800327 31.269389509750283 H 0.0 **** 0.06
30125 H 16.125187626944495 87.23851805280555 30.510042305436343 H 0.0 **** 0.06
30126 C 85.52678455304363 87.62075102247124 45.14653109830343 C 0.0 **** -0.24
30127 H 85.94321545076576 88.49014347486704 45.65564191186115 H 0.0 **** 0.06
30128 H 84.61548666169259 87.908177265391 44.6224614264172 H 0.0 **** 0.06
30129 H 85.29609260386559 86.84763974371468 45.87967700678806 H 0.0 **** 0.06
30130 H 86.25322169772298 87.23717178469133 44.43039650595671 H 0.0 **** 0.06
30131 C 104.14263854314046 29.95742670981403 100.17605741373535 C 0.0 **** -0.24
30132 H 103.3393581799007 29.668486825331968 100.85354033911376 H 0.0 **** 0.06
30133 H 104.6544558754275 29.06359285967531 99.81766117923293 H 0.0 **** 0.06
30134 H 104.85098974925552 30.59623538804142 100.70356738834407 H 0.0 **** 0.06
30135 H 103.72406547372529 30.501141387266273 99.32914675370483 H 0.0 **** 0.06
30136 C 29.062978642039013 90.72702631674201 68.45529592420542 C 0.0 **** -0.24
30137 H 28.854007827803656 89.76182031029532 68.91728870248863 H 0.0 **** 0.06
30138 H 28.64400358164022 90.7460991049744 67.44951770377679 H 0.0 **** 0.06
30139 H 30.141154671359516 90.87742244349573 68.40327505469958 H 0.0 **** 0.06
30140 H 28.613455393516233 91.52079727473199 69.05189901326673 H 0.0 **** 0.06
30141 C 23.602487339590905 82.04236893308979 108.8354185266276 C 0.0 **** -0.24
30142 H 24.060228652020548 81.38728512586847 108.0946413715299 H 0.0 **** 0.06
30143 H 23.052096215029035 81.44205607304214 109.56029289114797 H 0.0 **** 0.06
30144 H 22.918364459450114 82.73009247208957 108.3378856413974 H 0.0 **** 0.06
30145 H 24.37976373828732 82.60953338210209 109.34815593634671 H 0.0 **** 0.06
30146 C 44.91052297989211 72.3397189564439 44.78470080433133 C 0.0 **** -0.24
30147 H 44.34957027298415 72.80714471988506 43.97573855457383 H 0.0 **** 0.06
30148 H 44.47211092975098 71.36843162227547 45.016361287138274 H 0.0 **** 0.06
30149 H 44.872229615729864 72.97673024596043 45.668480176003754 H 0.0 **** 0.06
30150 H 45.94783212993204 72.20619022481094 44.47690613129643 H 0.0 **** 0.06
30151 C 55.73928276323636 34.96153825436511 52.090976791576 C 0.0 **** -0.24
30152 H 55.192880604108694 35.48553108566995 52.87558685836905 H 0.0 **** 0.06
30153 H 55.105126312675225 34.18567438876167 51.66245657938117 H 0.0 **** 0.06
30154 H 56.63428088179165 34.50607435719016 52.515001255662014 H 0.0 **** 0.06
30155 H 56.025640731360284 35.669583350209734 51.31366606871046 H 0.0 **** 0.06
30156 C 104.28953149749964 2.2603150763018505 89.33859768912532 C 0.0 **** -0.24
30157 H 104.03977766781804 1.2524048819541918 89.67075551444401 H 0.0 **** 0.06
30158 H 105.25934502679661 2.2492295242881255 88.841281336295 H 0.0 **** 0.06
30159 H 104.330592454726 2.9258579508493767 90.20086470895501 H 0.0 **** 0.06
30160 H 103.52774392547985 2.613189419935651 88.64354365067081 H 0.0 **** 0.06
30161 C 74.15000226575559 108.38319996614563 83.15792498518061 C 0.0 **** -0.24
30162 H 74.21561848280521 109.14880908014395 82.38519094155839 H 0.0 **** 0.06
30163 H 75.14778277693478 108.00308295242219 83.3775379363795 H 0.0 **** 0.06
30164 H 73.5189053827602 107.566559510019 82.8077467352075 H 0.0 **** 0.06
30165 H 73.71856795974409 108.81391779224849 84.06096832705384 H 0.0 **** 0.06
30166 C 94.16523225168817 28.754755930492706 22.285071920936435 C 0.0 **** -0.24
30167 H 94.83241262059957 27.91203394830268 22.46421072905013 H 0.0 **** 0.06
30168 H 94.74747586912241 29.614743707643186 21.953436355394444 H 0.0 **** 0.06
30169 H 93.63960465015907 29.004434286743816 23.206619566590973 H 0.0 **** 0.06
30170 H 93.44138235182521 28.487138583544635 21.51477843696121 H 0.0 **** 0.06
30171 C 21.729680440219155 105.63451159957987 39.760623570781604 C 0.0 **** -0.24
30172 H 21.593519312834076 104.70226612832796 40.3086630344863 H 0.0 **** 0.06
30173 H 20.856380828673252 106.27111046600147 39.90597641922011 H 0.0 **** 0.06
30174 H 21.847973665631045 105.4168548852052 38.69914818291187 H 0.0 **** 0.06
30175 H 22.61911061216253 106.14559927504224 40.12897677476974 H 0.0 **** 0.06
30176 C 61.055157822201295 70.29085633371848 7.526972429567124 C 0.0 **** -0.24
30177 H 62.134058681469924 70.35326538492976 7.387901455753282 H 0.0 **** 0.06
30178 H 60.65016688831588 69.51236070463388 6.881019186796241 H 0.0 **** 0.06
30179 H 60.60058016031968 71.24845235566904 7.272953251999532 H 0.0 **** 0.06
30180 H 60.83659481341826 70.04963909549652 8.568095033738809 H 0.0 **** 0.06
30181 C 90.028743112532 54.538275107061246 91.05640106082876 C 0.0 **** -0.24
30182 H 90.1306501977509 55.56430818647926 91.41037819865988 H 0.0 **** 0.06
30183 H 89.03151433386324 54.39528445015193 90.63947277094809 H 0.0 **** 0.06
30184 H 90.17745374240069 53.85022067395524 91.889471916003 H 0.0 **** 0.06
30185 H 90.77630558487665 54.34341115114097 90.28656329269236 H 0.0 **** 0.06
30186 C 25.04888002777645 61.22625019537463 44.41971912404165 C 0.0 **** -0.24
30187 H 23.97342693095888 61.38268397378215 44.34229955851885 H 0.0 **** 0.06
30188 H 25.247803134998264 60.17355111050966 44.62559303653499 H 0.0 **** 0.06
30189 H 25.44692800531351 61.83615882592892 45.23069323096556 H 0.0 **** 0.06
30190 H 25.526202131328063 61.509698265284044 43.48207820393318 H 0.0 **** 0.06
30191 C 20.820722641827757 81.53424037431438 62.073739860428645 C 0.0 **** -0.24
30192 H 20.761272169572152 81.82536472698402 61.02470934747538 H 0.0 **** 0.06
30193 H 20.179273696542964 80.6703893792648 62.247113512386875 H 0.0 **** 0.06
30194 H 20.490281896271114 82.36408409085689 62.69981264921353 H 0.0 **** 0.06
30195 H 21.85116392153634 81.27890969716395 62.32232340989748 H 0.0 **** 0.06
30196 C 25.141296005933697 39.939666622427296 101.14165307695022 C 0.0 **** -0.24
30197 H 26.150744780507697 40.335013408446514 101.03098332731805 H 0.0 **** 0.06
30198 H 25.180529621340632 38.851152430330444 101.1916365636585 H 0.0 **** 0.06
30199 H 24.536724146109133 40.24275485384328 100.28641968376253 H 0.0 **** 0.06
30200 H 24.69718547577735 40.32974579708895 102.05757273306186 H 0.0 **** 0.06
30201 C 29.757640522934906 76.84058491674892 16.83591246914108 C 0.0 **** -0.24
30202 H 29.085276288062715 77.60710815017842 16.450588968401718 H 0.0 **** 0.06
30203 H 30.27334828448761 77.22179151639295 17.717538119106166 H 0.0 **** 0.06
30204 H 30.489150077205153 76.58105939985853 16.07022778105943 H 0.0 **** 0.06
30205 H 29.182794996055407 75.95450290294474 17.10459071620005 H 0.0 **** 0.06
30206 C 71.1135972119605 86.37372166325804 34.33340274894951 C 0.0 **** -0.24
30207 H 70.99216745568054 85.29269111417554 34.398097962320634 H 0.0 **** 0.06
30208 H 70.21989468504967 86.86400101542989 34.722132458259466 H 0.0 **** 0.06
30209 H 71.262304570548 86.6614107330044 33.29252578093144 H 0.0 **** 0.06
30210 H 71.97950552072524 86.67756217612049 34.92191654959507 H 0.0 **** 0.06
30211 C 104.38510047250251 33.75701396700272 84.13364369853042 C 0.0 **** -0.24
30212 H 105.29847767963525 33.25703136037785 83.81415486866017 H 0.0 **** 0.06
30213 H 104.55689600695199 34.24999231990917 85.09202593817614 H 0.0 **** 0.06
30214 H 103.58701886026383 33.02251114311727 84.24106840224826 H 0.0 **** 0.06
30215 H 104.0977193920921 34.49978286514869 83.38940501740262 H 0.0 **** 0.06
30216 C 24.858963044320774 13.938070652921738 97.59557239419757 C 0.0 **** -0.24
30217 H 24.752915875946115 14.543318149581069 96.69604911613499 H 0.0 **** 0.06
30218 H 24.603624890860658 12.90264239784156 97.36866377237692 H 0.0 **** 0.06
30219 H 24.18984148500357 14.316243884624555 98.36845147682897 H 0.0 **** 0.06
30220 H 25.888816055937326 13.990346196041486 97.94841762957003 H 0.0 **** 0.06
30221 C 90.96471003398426 15.3256580981095 17.95825474523316 C 0.0 **** -0.24
30222 H 90.96641585576359 16.28420328823597 18.477983503367998 H 0.0 **** 0.06
30223 H 91.87083322153663 14.774777138367881 18.211088063087505 H 0.0 **** 0.06
30224 H 90.93060536545687 15.496571944196035 16.88218315339921 H 0.0 **** 0.06
30225 H 90.0910947342382 14.749930887930873 18.262692228709607 H 0.0 **** 0.06
30226 C 45.14077909286215 91.85957508561057 33.98405268863414 C 0.0 **** -0.24
30227 H 45.306770618960115 92.24972346607217 32.97958028084639 H 0.0 **** 0.06
30228 H 46.075621123112626 91.88563212998815 34.54242626840414 H 0.0 **** 0.06
30229 H 44.78340597960539 90.83214111953316 33.91964303101287 H 0.0 **** 0.06
30230 H 44.3958867349337 92.47178926596592 34.49173651704038 H 0.0 **** 0.06
30231 C 91.61171876632639 9.788674974414109 9.752723908758483 C 0.0 **** -0.24
30232 H 91.28296611113186 10.757006858353165 9.376069210848058 H 0.0 **** 0.06
30233 H 92.4998736160492 9.921424126692202 10.370822911050226 H 0.0 **** 0.06
30234 H 91.84703068100336 9.132766899641952 8.913851634849038 H 0.0 **** 0.06
30235 H 90.81595205547094 9.342647179627136 10.350553612376018 H 0.0 **** 0.06
30236 C 95.30201421909828 29.954671709127794 12.30138387009552 C 0.0 **** -0.24
30237 H 96.14835779524242 29.278933612300747 12.179411364892815 H 0.0 **** 0.06
30238 H 95.60827571011748 30.816092375261604 12.896727616282135 H 0.0 **** 0.06
30239 H 94.49050285936289 29.43305073417661 12.80827397343134 H 0.0 **** 0.06
30240 H 94.96105042796444 30.292427955574034 11.32275925368262 H 0.0 **** 0.06
30241 C 24.61953208625988 64.88629281292492 107.28240687805584 C 0.0 **** -0.24
30242 H 25.20324521192532 64.24061114528797 106.62521362299762 H 0.0 **** 0.06
30243 H 24.091937621701106 65.63004505883606 106.68491425845289 H 0.0 **** 0.06
30244 H 25.287426633022136 65.38944318643749 107.98263425626176 H 0.0 **** 0.06
30245 H 23.899021754344517 64.28495005890372 107.83555551644439 H 0.0 **** 0.06
30246 C 62.839429438696925 93.50414406657016 23.28052021600388 C 0.0 **** -0.24
30247 H 62.507175189081934 93.94253011059803 22.33932653891185 H 0.0 **** 0.06
30248 H 63.89518820428815 93.24223283327704 23.20618516991533 H 0.0 **** 0.06
30249 H 62.25552044366424 92.60858061587963 23.489816792750275 H 0.0 **** 0.06
30250 H 62.69979965587342 94.22553924929419 24.085928355006274 H 0.0 **** 0.06
30251 C 70.56609606731249 19.149606562269895 98.01353557230365 C 0.0 **** -0.24
30252 H 71.44053711253261 19.579445003743018 97.52458002860178 H 0.0 **** 0.06
30253 H 70.61072324013921 18.06325740958846 97.94715343782377 H 0.0 **** 0.06
30254 H 69.66147626757532 19.50753922344697 97.5220399409315 H 0.0 **** 0.06
30255 H 70.55252707821177 19.449585092181678 99.06187404356251 H 0.0 **** 0.06
30256 C 79.85920147351476 102.40412951038996 35.9630529398662 C 0.0 **** -0.24
30257 H 80.94057981277787 102.50410559666949 35.88049202169233 H 0.0 **** 0.06
30258 H 79.37542625484848 103.21000480846888 35.41029954173308 H 0.0 **** 0.06
30259 H 79.56854705354438 102.4582559361834 37.01300301275052 H 0.0 **** 0.06
30260 H 79.55035220686108 101.44316877075357 35.55052007437055 H 0.0 **** 0.06
30261 C 99.40923039398592 48.688096421718285 78.53703627972656 C 0.0 **** -0.24
30262 H 98.98902566236362 49.52037751555551 77.97087200870554 H 0.0 **** 0.06
30263 H 100.33066720677971 49.00956896654682 79.02392374359127 H 0.0 **** 0.06
30264 H 99.62533121585221 47.861482259689296 77.85903681608168 H 0.0 **** 0.06
30265 H 98.69298250338028 48.36258585745537 79.29004986374558 H 0.0 **** 0.06
30266 C 109.45908148131244 38.6625162335894 10.626317606968609 C 0.0 **** -0.24
30267 H 110.12470906790848 37.83186023760169 10.394440054304024 H 0.0 **** 0.06
30268 H 108.68336669107168 38.730654518703034 9.86287702240579 H 0.0 **** 0.06
30269 H 110.03060602919561 39.59098611032201 10.647321487530842 H 0.0 **** 0.06
30270 H 108.99807209975245 38.49846305747241 11.600172639270891 H 0.0 **** 0.06
30271 C 14.005467758861755 32.10227096280866 93.45763473687339 C 0.0 **** -0.24
30272 H 15.04352283544165 32.004682909972644 93.139121027052 H 0.0 **** 0.06
30273 H 13.91128665712381 32.94928700572498 94.13627780400702 H 0.0 **** 0.06
30274 H 13.694923435729379 31.190930588906838 93.9677343660693 H 0.0 **** 0.06
30275 H 13.371938535724269 32.263179790397345 92.58458555557945 H 0.0 **** 0.06
30276 C 68.76077413426128 36.60254582995047 72.71333084669294 C 0.0 **** -0.24
30277 H 69.48016411426255 37.37583309487647 72.44339454431085 H 0.0 **** 0.06
30278 H 68.22628813484147 36.27643265568281 71.82074937861215 H 0.0 **** 0.06
30279 H 68.05046542414738 37.00395409300671 73.43681942625645 H 0.0 **** 0.06
30280 H 69.28641196821883 35.75449408550966 73.15317500164255 H 0.0 **** 0.06
30281 C 58.38736579097241 90.97284771896278 61.727584271248986 C 0.0 **** -0.24
30282 H 57.34770198045999 91.05300293946021 62.04512960100408 H 0.0 **** 0.06
30283 H 58.973808884853725 90.50194443185586 62.51770794324068 H 0.0 **** 0.06
30284 H 58.78383902265634 91.96822967574877 61.52554342550064 H 0.0 **** 0.06
30285 H 58.44499718329797 90.36795488140552 60.822345607583884 H 0.0 **** 0.06
30286 C 96.73829656586962 12.860525511452977 94.96981378815026 C 0.0 **** -0.24
30287 H 97.81127393712829 12.677677226973486 95.02997863701745 H 0.0 **** 0.06
30288 H 96.283827782013 12.67995484977368 95.94429935806463 H 0.0 **** 0.06
30289 H 96.29635656233044 12.190804403001763 94.23242896638784 H 0.0 **** 0.06
30290 H 96.56255410733942 13.89477559324601 94.67284052166573 H 0.0 **** 0.06
30291 C 87.41317410511732 90.03385453499322 105.74876735150536 C 0.0 **** -0.24
30292 H 86.55318855060779 89.742984105255 105.14459103072602 H 0.0 **** 0.06
30293 H 88.27010240855091 89.41471621294926 105.48304689512187 H 0.0 **** 0.06
30294 H 87.17790050266368 89.89583306829184 106.80463154558115 H 0.0 **** 0.06
30295 H 87.6483592630151 91.08120294349692 105.56360011406954 H 0.0 **** 0.06
30296 C 91.76729074435458 50.401572509972766 46.982046979340254 C 0.0 **** -0.24
30297 H 91.19093147801446 50.8984631263709 46.201181766682225 H 0.0 **** 0.06
30298 H 91.51229223266148 49.341978505513254 47.003024148372475 H 0.0 **** 0.06
30299 H 91.53454586106015 50.852060302392715 47.94674189589517 H 0.0 **** 0.06
30300 H 92.83125950447673 50.51474981475113 46.774991220538425 H 0.0 **** 0.06
30301 C 98.19243059364895 77.15159018405771 39.060079411095046 C 0.0 **** -0.24
30302 H 97.92890091435937 77.38811769348604 40.09141380134989 H 0.0 **** 0.06
30303 H 98.60786839718716 78.03781413383996 38.579893720976486 H 0.0 **** 0.06
30304 H 97.30100606062022 76.83036391373594 38.522108525801514 H 0.0 **** 0.06
30305 H 98.93261515202622 76.35161063956286 39.04957835965206 H 0.0 **** 0.06
30306 C 52.14817804319093 82.68243476849199 99.30122582902816 C 0.0 **** -0.24
30307 H 52.094100498018456 81.6243857588149 99.55757255550535 H 0.0 **** 0.06
30308 H 51.19820936846167 83.161726119793 99.53881386499938 H 0.0 **** 0.06
30309 H 52.35240029607099 82.7875459482853 98.23600349989857 H 0.0 **** 0.06
30310 H 52.94642055884057 83.15452419050547 99.87278696066672 H 0.0 **** 0.06
30311 C 2.587271348066423 101.6821746677524 68.58731389324095 C 0.0 **** -0.24
30312 H 3.2150736744532793 102.19143253238053 67.8564497643398 H 0.0 **** 0.06
30313 H 2.5593982880058803 100.61609011035 68.36249946239428 H 0.0 **** 0.06
30314 H 1.5775331636488374 102.08978419320431 68.54597418537452 H 0.0 **** 0.06
30315 H 2.998683335484614 101.83259102885495 69.58532833071894 H 0.0 **** 0.06
30316 C 49.821697279780956 56.509830723384226 65.66380577726108 C 0.0 **** -0.24
30317 H 48.908651642152904 55.9202535078378 65.74935766761413 H 0.0 **** 0.06
30318 H 50.236744352527694 56.392806347364285 64.66206428261819 H 0.0 **** 0.06
30319 H 50.547563917497094 56.16324638898021 66.40016894313487 H 0.0 **** 0.06
30320 H 49.59419375540381 57.5603005504411 65.84241141118275 H 0.0 **** 0.06
30321 C 57.40871288274828 17.788738703655614 57.28313982982918 C 0.0 **** -0.24
30322 H 56.849640867256824 17.332055353692773 56.466713158543854 H 0.0 **** 0.06
30323 H 58.45819327511764 17.50357985864129 57.20793288258756 H 0.0 **** 0.06
30324 H 57.005887653921455 17.445767937614733 58.23576335702013 H 0.0 **** 0.06
30325 H 57.32175736832576 18.873780120035242 57.22001587909363 H 0.0 **** 0.06
30326 C 25.487991315084457 46.25037657412468 65.51560723162017 C 0.0 **** -0.24
30327 H 25.72837983583105 46.110185562236325 64.46143428463964 H 0.0 **** 0.06
30328 H 25.504800308792653 45.285155521303636 66.02267286477746 H 0.0 **** 0.06
30329 H 24.495462610971487 46.692145274829635 65.60547897803222 H 0.0 **** 0.06
30330 H 26.223646575739437 46.91304449040915 65.9708569160735 H 0.0 **** 0.06
30331 C 107.28264277198673 101.7968089635964 57.13598633461319 C 0.0 **** -0.24
30332 H 106.59276149281055 101.59910295429889 57.95703014484039 H 0.0 **** 0.06
30333 H 107.96128302894611 100.95166092704854 57.02047904861857 H 0.0 **** 0.06
30334 H 107.85627620113655 102.69843517068733 57.353003966768256 H 0.0 **** 0.06
30335 H 106.71760992755141 101.93938652765458 56.21388691320058 H 0.0 **** 0.06
30336 C 57.98181514931815 38.763304384480364 64.49073155937931 C 0.0 **** -0.24
30337 H 57.70111501906382 38.7082392262289 63.43898729798002 H 0.0 **** 0.06
30338 H 59.058329910190025 38.62363488436449 64.58768575743981 H 0.0 **** 0.06
30339 H 57.462339560030046 37.982332897227764 65.04607954402468 H 0.0 **** 0.06
30340 H 57.70407070191345 39.738852864411 64.89018234717196 H 0.0 **** 0.06
30341 C 42.66606390100371 110.00071809784525 13.323441406257505 C 0.0 **** -0.24
30342 H 41.95599385834767 109.41833589514793 13.91044756325643 H 0.0 **** 0.06
30343 H 42.233731686502196 110.97416318204719 13.09050517147223 H 0.0 **** 0.06
30344 H 42.892242352794845 109.47283328378845 12.397912596137644 H 0.0 **** 0.06
30345 H 43.583300729907904 110.13925019243264 13.896912638902265 H 0.0 **** 0.06
30346 C 32.44180121641753 34.27959402366902 72.27614393097902 C 0.0 **** -0.24
30347 H 31.536803663391645 34.885156784801104 72.3272703929059 H 0.0 **** 0.06
30348 H 32.29524959520086 33.46671655331508 71.56456639002472 H 0.0 **** 0.06
30349 H 32.65754441848378 33.86637881626738 73.26197294638715 H 0.0 **** 0.06
30350 H 33.27704330372162 34.899982108244046 71.95157960863364 H 0.0 **** 0.06
30351 C 69.99652722532215 38.911906794550845 47.68375127249146 C 0.0 **** -0.24
30352 H 70.69568220119339 38.08635801622168 47.8195500230338 H 0.0 **** 0.06
30353 H 70.28522859316053 39.492343462013544 46.807740710744525 H 0.0 **** 0.06
30354 H 70.01284116386466 39.55008692503739 48.5664027514982 H 0.0 **** 0.06
30355 H 68.99081850995623 38.51479526809249 47.54077847123858 H 0.0 **** 0.06
30356 C 40.435124761007444 37.25886918078288 52.25586278772994 C 0.0 **** -0.24
30357 H 40.00948744982199 36.28308495954309 52.01883360136304 H 0.0 **** 0.06
30358 H 41.35319332693079 37.12453643635948 52.82901339524315 H 0.0 **** 0.06
30359 H 39.71937922764768 37.83339143597064 52.84465161971815 H 0.0 **** 0.06
30360 H 40.65771523694579 37.79218178519312 51.33147061108369 H 0.0 **** 0.06
30361 C 74.93686694949719 49.07195070881787 48.13001447920361 C 0.0 **** -0.24
30362 H 74.52146147653963 48.10018347874869 47.862216979521925 H 0.0 **** 0.06
30363 H 75.91649409097869 48.93441139073438 48.58711217378129 H 0.0 **** 0.06
30364 H 74.27126364500629 49.56757483292607 48.8365699900016 H 0.0 **** 0.06
30365 H 75.0357292940837 49.68376113875898 47.23377236466661 H 0.0 **** 0.06
30366 C 58.98655043207549 63.93558718547219 33.95896135134376 C 0.0 **** -0.24
30367 H 59.73558364580725 63.42162485428814 34.56241040618937 H 0.0 **** 0.06
30368 H 58.234945123465195 64.37927848554244 34.61216977118636 H 0.0 **** 0.06
30369 H 58.50952684151491 63.22183345807291 33.28814931637635 H 0.0 **** 0.06
30370 H 59.46831534613466 64.71925552430446 33.373525379073044 H 0.0 **** 0.06
30371 C 83.80330817128427 29.196504433751528 46.312018768420984 C 0.0 **** -0.24
30372 H 84.64788091894172 29.884242058270083 46.361974745734926 H 0.0 **** 0.06
30373 H 83.27071006497457 29.206656064324733 47.26242177735941 H 0.0 **** 0.06
30374 H 84.16769448155247 28.188934449802368 46.11018441369475 H 0.0 **** 0.06
30375 H 83.12970822049724 29.506797153342568 45.513441753841846 H 0.0 **** 0.06
30376 C 15.152086963874773 31.84598829368261 9.51807760230281 C 0.0 **** -0.24
30377 H 15.504318878537354 31.456244153610612 10.473289060646053 H 0.0 **** 0.06
30378 H 15.888244994805273 31.627701501295462 8.743682341447894 H 0.0 **** 0.06
30379 H 15.01351415853517 32.924132624650554 9.594622220261428 H 0.0 **** 0.06
30380 H 14.203638241822471 31.37420372137308 9.261295458734466 H 0.0 **** 0.06
30381 C 98.64511479968434 50.91278132945976 6.84202283449423 C 0.0 **** -0.24
30382 H 98.52606398507642 51.205835366120255 7.88539812471619 H 0.0 **** 0.06
30383 H 99.1605892373056 49.952770939057274 6.790506030952656 H 0.0 **** 0.06
30384 H 99.23046658148269 51.668326033990695 6.317088295759191 H 0.0 **** 0.06
30385 H 97.66437635096865 50.82475151031733 6.375881743503612 H 0.0 **** 0.06
30386 C 74.8943203906614 11.626339543642075 63.961484044161736 C 0.0 **** -0.24
30387 H 74.60923858578435 11.8441696583739 64.9910447117809 H 0.0 **** 0.06
30388 H 74.83801623150055 12.539811902649788 63.3689624394963 H 0.0 **** 0.06
30389 H 74.21542313761532 10.88196759045249 63.546372484475924 H 0.0 **** 0.06
30390 H 75.91366915949988 11.241181757571994 63.94054874567506 H 0.0 **** 0.06
30391 C 52.52647583243527 48.782645575876415 63.65032991413557 C 0.0 **** -0.24
30392 H 52.97482277159213 49.318585501026746 62.813118946595125 H 0.0 **** 0.06
30393 H 51.451606599505965 48.69734880979189 63.49290917122585 H 0.0 **** 0.06
30394 H 52.717015415301546 49.32931399912678 64.57467298222912 H 0.0 **** 0.06
30395 H 52.965039587178524 47.786776806756336 63.72112546406839 H 0.0 **** 0.06
30396 C 28.248643303132802 106.56241431880639 42.530190779196346 C 0.0 **** -0.24
30397 H 27.91790920255714 106.69563763855535 41.500270286210565 H 0.0 **** 0.06
30398 H 27.402659555085542 106.25853535731744 43.14700908822971 H 0.0 **** 0.06
30399 H 28.652414240732 107.5027572101655 42.90551065653614 H 0.0 **** 0.06
30400 H 29.021247244262767 105.794359328101 42.567505909907425 H 0.0 **** 0.06
30401 C 12.527251036169574 102.43907014227739 15.153440047507104 C 0.0 **** -0.24
30402 H 12.852637110818051 101.85187307565967 16.01115628918629 H 0.0 **** 0.06
30403 H 12.026307578748401 103.34319242655314 15.501066766560186 H 0.0 **** 0.06
30404 H 11.835871542919406 101.84888561557115 14.5504512882016 H 0.0 **** 0.06
30405 H 13.392677590755696 102.71099177784332 14.550121579416398 H 0.0 **** 0.06
30406 C 102.34890935473105 24.66468252704402 14.709754969708854 C 0.0 **** -0.24
30407 H 101.92750764667255 23.835372145448787 15.27797467065841 H 0.0 **** 0.06
30408 H 103.05802890668988 24.278647313578887 13.976977347443793 H 0.0 **** 0.06
30409 H 102.86082187069891 25.3465452267819 15.388363499148923 H 0.0 **** 0.06
30410 H 101.54787468436658 25.196708640715514 14.194752547191598 H 0.0 **** 0.06
30411 C 50.93972255797826 48.23632881464329 100.61922124711585 C 0.0 **** -0.24
30412 H 51.46546996008624 47.41278490228039 101.10099895218899 H 0.0 **** 0.06
30413 H 50.9129660903933 49.09325481443807 101.29336716967588 H 0.0 **** 0.06
30414 H 49.92132096062767 47.92748354042461 100.3827439071903 H 0.0 **** 0.06
30415 H 51.45844593650912 48.51141234279616 99.70095122475772 H 0.0 **** 0.06
30416 C 62.704715531028526 79.42251116782376 49.337290264654655 C 0.0 **** -0.24
30417 H 61.82700177116509 79.55076257407094 49.969650758598675 H 0.0 **** 0.06
30418 H 63.12944464434176 78.43210863790132 49.502704195524245 H 0.0 **** 0.06
30419 H 63.446202406474015 80.1823363121544 49.58727380832039 H 0.0 **** 0.06
30420 H 62.41756943982713 79.52499754218843 48.29130300659193 H 0.0 **** 0.06
30421 C 8.567600913568356 64.13866943608508 21.423284472893272 C 0.0 **** -0.24
30422 H 8.133458221827993 64.69731366709357 20.59330402436899 H 0.0 **** 0.06
30423 H 7.771523972937416 63.67456975679222 22.005017827459255 H 0.0 **** 0.06
30424 H 9.136053324544804 64.81676396312014 22.059141656954694 H 0.0 **** 0.06
30425 H 9.23033844209769 63.36556102307988 21.032701382252412 H 0.0 **** 0.06
30426 C 12.540016801832401 32.637979924522824 62.48603077593094 C 0.0 **** -0.24
30427 H 11.880536313812435 31.959038777971557 63.02655842034045 H 0.0 **** 0.06
30428 H 13.138851895014675 32.070283310710295 61.773659503099765 H 0.0 **** 0.06
30429 H 13.197907701117607 33.14435159313422 63.192107268437894 H 0.0 **** 0.06
30430 H 11.942638101171735 33.37702610007594 61.95250087968995 H 0.0 **** 0.06
30431 C 101.41237797477913 35.66556343993324 69.44703908712057 C 0.0 **** -0.24
30432 H 100.84285440996636 36.128952509111926 70.25291887524168 H 0.0 **** 0.06
30433 H 102.47734731039435 35.81615643404592 69.62147461686368 H 0.0 **** 0.06
30434 H 101.13149334432951 36.1197195887282 68.49679030396379 H 0.0 **** 0.06
30435 H 101.19539651683685 34.59742019349011 69.41659527388742 H 0.0 **** 0.06
30436 C 30.86644457160348 76.81906297023852 38.01337421330854 C 0.0 **** -0.24
30437 H 31.151244893570848 77.72349773553016 38.551420019047875 H 0.0 **** 0.06
30438 H 31.296664955618745 76.84292577107664 37.0116433257735 H 0.0 **** 0.06
30439 H 29.780767901173803 76.76495839606237 37.94225795259724 H 0.0 **** 0.06
30440 H 31.24036786808248 75.94539189536961 38.547945997543074 H 0.0 **** 0.06
30441 C 90.52219163753705 69.05966510502054 48.23594322036248 C 0.0 **** -0.24
30442 H 91.45248926073327 69.30970955909709 48.74539665856325 H 0.0 **** 0.06
30443 H 90.12090307932397 69.95204455316434 47.75515619179207 H 0.0 **** 0.06
30444 H 89.80068668132435 68.68249494094738 48.96163810494932 H 0.0 **** 0.06
30445 H 90.71407498779763 68.29533613036585 47.48376593798343 H 0.0 **** 0.06
30446 C 87.10580944744208 69.4956628899713 3.7007354024605004 C 0.0 **** -0.24
30447 H 86.17168854624708 69.25875031474817 4.210566092292323 H 0.0 **** 0.06
30448 H 87.53576528755204 70.3996780828731 4.13240107789308 H 0.0 **** 0.06
30449 H 86.90841171395454 69.65731035588897 2.6403444203856203 H 0.0 **** 0.06
30450 H 87.80408959607291 68.66825788196695 3.8184401826616874 H 0.0 **** 0.06
30451 C 58.97305207111121 89.30702024772111 38.17234380708845 C 0.0 **** -0.24
30452 H 58.11527210092718 89.68446474749824 38.7290393316358 H 0.0 **** 0.06
30453 H 58.624603791014806 88.76619771193445 37.291662489489255 H 0.0 **** 0.06
30454 H 59.55158671119656 88.63650610450642 38.807169094188616 H 0.0 **** 0.06
30455 H 59.599621304682614 90.14355027025816 37.860622262948084 H 0.0 **** 0.06
30456 C 53.13150631065383 105.0408071203105 7.132639939164207 C 0.0 **** -0.24
30457 H 54.03713981998294 105.06244466266271 7.7383671610484726 H 0.0 **** 0.06
30458 H 52.414662749804506 104.3498612604333 7.576755780184641 H 0.0 **** 0.06
30459 H 53.37710932299413 104.71104779800358 6.122951025119249 H 0.0 **** 0.06
30460 H 52.696909299954456 106.03894210378925 7.093529158086824 H 0.0 **** 0.06
30461 C 94.20266845008507 54.866975149401156 83.65652861671117 C 0.0 **** -0.24
30462 H 94.59334605832488 53.93903640905276 83.23942382063854 H 0.0 **** 0.06
30463 H 94.37581588288123 55.68140426255664 82.9539242765029 H 0.0 **** 0.06
30464 H 94.70951722286267 55.083595490375785 84.59737596193105 H 0.0 **** 0.06
30465 H 93.13226471458464 54.762253465099974 83.83596658701754 H 0.0 **** 0.06
30466 C 98.43088834205753 85.14491097351154 4.898337863659108 C 0.0 **** -0.24
30467 H 97.7470442983759 84.9826062053346 4.065530448741896 H 0.0 **** 0.06
30468 H 99.45915383501779 85.05848902658951 4.545977114128149 H 0.0 **** 0.06
30469 H 98.24704892794591 84.39816775824602 5.670155408742261 H 0.0 **** 0.06
30470 H 98.27052215057887 86.14128073693058 5.310618991307962 H 0.0 **** 0.06
30471 C 92.60220295885628 38.0158545246822 88.02588837206036 C 0.0 **** -0.24
30472 H 91.5902399815787 37.66337390463286 87.8232158738981 H 0.0 **** 0.06
30473 H 92.61339397856435 39.105714006841765 88.02454939113969 H 0.0 **** 0.06
30474 H 93.277007132228 37.644031996157764 87.25468990240486 H 0.0 **** 0.06
30475 H 92.92640756529164 37.64942351905893 88.99964008396267 H 0.0 **** 0.06
30476 C 85.34718127604197 69.8175184291037 84.47564768999433 C 0.0 **** -0.24
30477 H 86.17970654989774 70.50433436496246 84.31984229836189 H 0.0 **** 0.06
30478 H 85.73008731111372 68.85390114163678 84.81179858902033 H 0.0 **** 0.06
30479 H 84.80438828972164 69.68803667139562 83.54004365412135 H 0.0 **** 0.06
30480 H 84.67722616094679 70.2271321496655 85.23174787246955 H 0.0 **** 0.06
30481 C 12.660258882598924 31.796288762387846 34.33457504249037 C 0.0 **** -0.24
30482 H 13.126520368095427 31.080345428625606 35.01151677404013 H 0.0 **** 0.06
30483 H 13.248135635939747 32.71399158992053 34.31676564571218 H 0.0 **** 0.06
30484 H 11.65028944661816 32.01734028843209 34.679281691699586 H 0.0 **** 0.06
30485 H 12.617304838239122 31.37165921299131 33.3312024953662 H 0.0 **** 0.06
30486 C 108.02424116030795 82.37651155895207 50.97695156463067 C 0.0 **** -0.24
30487 H 108.45572489000403 81.87022580659942 50.11406211143651 H 0.0 **** 0.06
30488 H 107.693256302811 83.3732044887197 50.68514347786282 H 0.0 **** 0.06
30489 H 108.77472482824692 82.45803112502608 51.763589082682245 H 0.0 **** 0.06
30490 H 107.17255230536927 81.80397283747209 51.34536746941339 H 0.0 **** 0.06
30491 C 95.97044071729817 21.936760934167722 69.74096160845757 C 0.0 **** -0.24
30492 H 96.24810322727211 22.873459719257212 69.25708076004466 H 0.0 **** 0.06
30493 H 95.82725163063014 21.165468919680436 68.9830794738504 H 0.0 **** 0.06
30494 H 95.04338764104887 22.07631652717795 70.29738283597595 H 0.0 **** 0.06
30495 H 96.76311051477558 21.632346375586806 70.42466265239364 H 0.0 **** 0.06
30496 C 97.80820623754427 53.04952383390264 47.68011358332793 C 0.0 **** -0.24
30497 H 98.24952163529619 52.95847264536201 46.68738645294776 H 0.0 **** 0.06
30498 H 97.65592379963913 52.05603204084082 48.10156563836555 H 0.0 **** 0.06
30499 H 96.85062964357088 53.56427422895831 47.605094909617534 H 0.0 **** 0.06
30500 H 98.47811935621917 53.618833797388504 48.32359804602534 H 0.0 **** 0.06
30501 C 9.225624461242546 103.17880384994653 50.3768996741264 C 0.0 **** -0.24
30502 H 10.035484030554215 102.71299172130104 50.93821621752991 H 0.0 **** 0.06
30503 H 9.378980566983529 103.00989737397208 49.310776666538914 H 0.0 **** 0.06
30504 H 9.214250598719275 104.250226308723 50.57784319734485 H 0.0 **** 0.06
30505 H 8.274657323432336 102.74098967374536 50.68071539595291 H 0.0 **** 0.06
30506 C 53.736690219252594 9.786160722910225 31.0795215247918 C 0.0 **** -0.24
30507 H 53.48258637565041 10.246598799178471 30.1242358090645 H 0.0 **** 0.06
30508 H 52.97523926445522 9.052802587959405 31.343549899064598 H 0.0 **** 0.06
30509 H 53.78435801410203 10.55524930940578 31.85098072674466 H 0.0 **** 0.06
30510 H 54.70551947153693 9.293134875975426 30.997520656760145 H 0.0 **** 0.06
30511 C 92.112788226195 73.97073855925498 23.246244617931552 C 0.0 **** -0.24
30512 H 91.71261600529485 74.32003516545728 22.29490989234563 H 0.0 **** 0.06
30513 H 93.13999848359018 74.31745346472462 23.35679581707126 H 0.0 **** 0.06
30514 H 92.09200500064406 72.88118968242765 23.27122536760737 H 0.0 **** 0.06
30515 H 91.50611731753204 74.36459476452262 24.06119577627277 H 0.0 **** 0.06
30516 C 110.58177716895754 11.793522741438096 57.00718542792879 C 0.0 **** -0.24
30517 H 111.50282644268427 12.14394816972731 57.473180058069914 H 0.0 **** 0.06
30518 H 110.4134701985055 12.3389587828174 56.079025430764204 H 0.0 **** 0.06
30519 H 109.74529989726074 11.961311857479359 57.68551153813106 H 0.0 **** 0.06
30520 H 110.66668409093373 10.728257719096078 56.792446099852086 H 0.0 **** 0.06
30521 C 89.9371531955239 48.95752548636201 68.74771504675971 C 0.0 **** -0.24
30522 H 91.0239383127215 48.87972649714921 68.7241749044386 H 0.0 **** 0.06
30523 H 89.5646884863538 49.145976160158035 67.73992677278721 H 0.0 **** 0.06
30524 H 89.64519325990412 49.77727078588316 69.40229327026145 H 0.0 **** 0.06
30525 H 89.51507816373966 48.02502023652117 69.12235001102215 H 0.0 **** 0.06
30526 C 0.2904700492983636 49.01855476625763 56.4172863043986 C 0.0 **** -0.24
30527 H 0.3226136931395871 49.07250496250244 55.329569042195374 H 0.0 **** 0.06
30528 H 0.6726714254210293 48.05121372855405 56.74538724274072 H 0.0 **** 0.06
30529 H -0.7392891204760161 49.13625289494374 56.756150560388164 H 0.0 **** 0.06
30530 H 0.9040923342731304 49.81413190442624 56.83891931723582 H 0.0 **** 0.06
30531 C 91.52295625127584 18.556537731362567 42.0571801675613 C 0.0 **** -0.24
30532 H 92.1686614363054 18.738863482476603 42.916428027906605 H 0.0 **** 0.06
30533 H 92.09062361654748 18.047485144524046 41.27824630718654 H 0.0 **** 0.06
30534 H 91.1501147532631 19.506446970384786 41.67420316812223 H 0.0 **** 0.06
30535 H 90.68266461267024 17.932520013432168 42.3609589766494 H 0.0 **** 0.06
30536 C 102.54288448601541 43.05923535672116 102.63433489274732 C 0.0 **** -0.24
30537 H 102.69387280763554 41.994617151714564 102.45271057966931 H 0.0 **** 0.06
30538 H 102.97127161876006 43.63305824273493 101.81200069183774 H 0.0 **** 0.06
30539 H 103.03099107753333 43.340272768984704 103.56712137458703 H 0.0 **** 0.06
30540 H 101.47543231758974 43.26683501576119 102.70609115570201 H 0.0 **** 0.06
30541 C 101.2749561168468 19.27425676280029 16.797199451418777 C 0.0 **** -0.24
30542 H 100.38501487767348 18.965582175721323 16.249463857332408 H 0.0 **** 0.06
30543 H 101.09313488180862 20.238848882050746 17.271110638309 H 0.0 **** 0.06
30544 H 102.11448373141013 19.360558830981404 16.1070167983859 H 0.0 **** 0.06
30545 H 101.50670241681581 18.532039347414894 17.559879332224792 H 0.0 **** 0.06
30546 C 10.598240580594279 58.65026566848613 110.2451365078407 C 0.0 **** -0.24
30547 H 10.87689636203389 58.01810721878479 109.40116941447201 H 0.0 **** 0.06
30548 H 11.492660759600113 58.92093093440474 110.80574471340731 H 0.0 **** 0.06
30549 H 9.91117519168705 58.10802850326974 110.89398524879374 H 0.0 **** 0.06
30550 H 10.112214065847226 59.554193524291534 109.87604646157229 H 0.0 **** 0.06
30551 C 15.430693221669145 85.78877851262186 42.18327323018485 C 0.0 **** -0.24
30552 H 16.31087850312825 85.45524093259814 42.7333407780219 H 0.0 **** 0.06
30553 H 14.732542413629432 86.2662636031368 42.8710167755537 H 0.0 **** 0.06
30554 H 14.949734009971252 84.93104714744169 41.71391213832874 H 0.0 **** 0.06
30555 H 15.730123720606585 86.50239330485066 41.41613308554321 H 0.0 **** 0.06
30556 C 22.442821955460634 14.528872746886961 46.23670727801348 C 0.0 **** -0.24
30557 H 21.520480219879662 14.995096759660186 46.58364479646485 H 0.0 **** 0.06
30558 H 22.51971444387479 14.637429727190565 45.15527738521226 H 0.0 **** 0.06
30559 H 22.435218325477752 13.470821277954641 46.49737368220292 H 0.0 **** 0.06
30560 H 23.295840554299076 15.013853657472936 46.712997734028505 H 0.0 **** 0.06
30561 C 93.91742984237442 22.670345793860463 57.13735941412233 C 0.0 **** -0.24
30562 H 93.4030116300969 22.6436218044651 58.09724659172724 H 0.0 **** 0.06
30563 H 94.97742805193684 22.867099815559328 57.298931064175235 H 0.0 **** 0.06
30564 H 93.49175118816203 23.46086689617276 56.5186649479553 H 0.0 **** 0.06
30565 H 93.79759023965107 21.71120036622746 56.63445265683572 H 0.0 **** 0.06
30566 C 0.2924115754150174 43.57597112155531 87.75979624773845 C 0.0 **** -0.24
30567 H -0.5377131107979638 43.7824614248741 87.08505967909286 H 0.0 **** 0.06
30568 H 1.1482615274492076 43.22116418389689 87.18511054673877 H 0.0 **** 0.06
30569 H -0.004539155188512112 42.812756151475156 88.47865984509235 H 0.0 **** 0.06
30570 H 0.5644167932458828 44.48857498916334 88.29084719778996 H 0.0 **** 0.06
30571 C 15.97848919040041 43.44347706007022 82.32351100967468 C 0.0 **** -0.24
30572 H 16.057214630733938 42.98557753430032 81.33787008941897 H 0.0 **** 0.06
30573 H 15.074035383807399 43.08905320908718 82.81829964716619 H 0.0 **** 0.06
30574 H 15.932809830296407 44.52744365287066 82.21726334419769 H 0.0 **** 0.06
30575 H 16.849731949484962 43.17304290291463 82.91989607124809 H 0.0 **** 0.06
30576 C 8.953730781428519 49.40048447687335 0.07973683577949942 C 0.0 **** -0.24
30577 H 9.502088628468854 48.84017848856701 -0.6783058156755146 H 0.0 **** 0.06
30578 H 8.0708273950315 49.85385346939193 -0.3713861212803522 H 0.0 **** 0.06
30579 H 9.594945411910757 50.180942410606654 0.4895049983353488 H 0.0 **** 0.06
30580 H 8.64672876339776 48.724982541936484 0.8781519060549954 H 0.0 **** 0.06
30581 C 100.46654602555779 66.39947930946187 73.0248596108496 C 0.0 **** -0.24
30582 H 99.73183644794747 65.7882895104338 72.4992497992535 H 0.0 **** 0.06
30583 H 100.34684359032116 67.44248457939977 72.73162920793419 H 0.0 **** 0.06
30584 H 101.47018342164722 66.06167224972643 72.76612980695245 H 0.0 **** 0.06
30585 H 100.31686393625881 66.30340101795224 74.1000828191359 H 0.0 **** 0.06
30586 C 79.76965702704075 82.01997364420185 43.648774174191075 C 0.0 **** -0.24
30587 H 79.65898745911181 82.14301935012296 44.72645676532088 H 0.0 **** 0.06
30588 H 79.41589780988636 82.91815727370044 43.14228001676066 H 0.0 **** 0.06
30589 H 79.18428157824326 81.16240952426546 43.319514375564694 H 0.0 **** 0.06
30590 H 80.820528993322 81.85689246995025 43.40756591673829 H 0.0 **** 0.06
30591 C 50.538803169158754 69.86101081338559 74.75779351081928 C 0.0 **** -0.24
30592 H 51.25736739933012 70.62620681197971 74.46629874483676 H 0.0 **** 0.06
30593 H 49.8716607007112 69.65246774747787 73.92075557649059 H 0.0 **** 0.06
30594 H 49.95504465370195 70.21572318546761 75.60802285046952 H 0.0 **** 0.06
30595 H 51.0685428042774 68.95031129209663 75.03519570030846 H 0.0 **** 0.06
30596 C 59.92727738178098 59.78632156334997 2.4778382759478745 C 0.0 **** -0.24
30597 H 59.26996139557116 59.53169348219977 3.3090788874377495 H 0.0 **** 0.06
30598 H 60.963939366975694 59.61839225022773 2.770066635687499 H 0.0 **** 0.06
30599 H 59.78859193654034 60.8345557425247 2.2140179565981555 H 0.0 **** 0.06
30600 H 59.68569158193088 59.160153803742915 1.6191398682671547 H 0.0 **** 0.06
30601 C 13.752522712771679 90.69241042833602 68.71618704370877 C 0.0 **** -0.24
30602 H 13.998231651820106 89.80864469735809 69.30488983454092 H 0.0 **** 0.06
30603 H 14.26062622688653 91.56117069503625 69.1344490876167 H 0.0 **** 0.06
30604 H 12.674507002461155 90.85538908637545 68.73883371995294 H 0.0 **** 0.06
30605 H 14.075239571977932 90.54426844172926 67.68570244569077 H 0.0 **** 0.06
30606 C 50.940933718988006 12.738383857033767 12.374272383898557 C 0.0 **** -0.24
30607 H 50.503482842816965 13.733725998553382 12.296083586298607 H 0.0 **** 0.06
30608 H 51.86374951151776 12.791878979773031 12.951212568732672 H 0.0 **** 0.06
30609 H 51.15557350751852 12.356722873609868 11.376524247760528 H 0.0 **** 0.06
30610 H 50.23789383898865 12.071399279077554 12.87459258099193 H 0.0 **** 0.06
30611 C 59.94817451113357 71.31236363885289 17.61106533183579 C 0.0 **** -0.24
30612 H 59.86131560235165 72.32108282684594 17.208783340504823 H 0.0 **** 0.06
30613 H 58.95278783669417 70.89383530519356 17.760357466287957 H 0.0 **** 0.06
30614 H 60.47490813503083 71.34588792003379 18.564883740045474 H 0.0 **** 0.06
30615 H 60.50407015096994 70.6886123422673 16.911159565376323 H 0.0 **** 0.06
30616 C 54.278430360892315 40.976620125896986 43.09404085173918 C 0.0 **** -0.24
30617 H 54.67054643281062 40.98797215966569 44.11108896157171 H 0.0 **** 0.06
30618 H 53.20542235704325 40.7904194716059 43.12034297571074 H 0.0 **** 0.06
30619 H 54.77156074428236 40.18941421893402 42.52350160589921 H 0.0 **** 0.06
30620 H 54.46950485386427 41.94031558580089 42.62180644323618 H 0.0 **** 0.06
30621 C 90.22326333667888 7.598831235418851 43.770914076266976 C 0.0 **** -0.24
30622 H 89.8267538374925 7.583103315425809 44.785146043021115 H 0.0 **** 0.06
30623 H 91.14793878476166 7.022606804227257 43.73219101682996 H 0.0 **** 0.06
30624 H 90.4242742109825 8.629244269891114 43.47583375634014 H 0.0 **** 0.06
30625 H 89.49401468854859 7.16245017582342 43.08832436440696 H 0.0 **** 0.06
30626 C 76.19046526640727 80.55456608290328 108.99595412585737 C 0.0 **** -0.24
30627 H 75.52664296063318 81.41910065026704 109.00453681477399 H 0.0 **** 0.06
30628 H 76.36668885515829 80.22123452419673 110.0192786655958 H 0.0 **** 0.06
30629 H 77.13913882114696 80.82996629862312 108.53453352451882 H 0.0 **** 0.06
30630 H 75.72868450069484 79.74865836822713 108.42560159625987 H 0.0 **** 0.06
30631 C 72.56897389385803 97.63586174491354 86.67184060684971 C 0.0 **** -0.24
30632 H 71.87185087371965 98.11381298866627 85.98243295130332 H 0.0 **** 0.06
30633 H 72.07427033326339 97.46859375961299 87.62904517362637 H 0.0 **** 0.06
30634 H 73.43504988573893 98.2804836892102 86.818112964501 H 0.0 **** 0.06
30635 H 72.89196046726998 96.68073001258 86.2571964215568 H 0.0 **** 0.06
30636 C 108.9643126732567 78.10204559513909 52.12412535633439 C 0.0 **** -0.24
30637 H 108.57037982976402 78.70532635706104 52.94204587204109 H 0.0 **** 0.06
30638 H 108.64675302202996 78.53012863271084 51.172833308346355 H 0.0 **** 0.06
30639 H 108.58398259382822 77.08374569327952 52.20951921626934 H 0.0 **** 0.06
30640 H 110.0526225490548 78.08868915325576 52.17335844576462 H 0.0 **** 0.06
30641 C 93.76200170767282 13.560228154277368 0.21792099620651584 C 0.0 **** -0.24
30642 H 93.56547746418522 14.286499877412353 -0.5717861770497308 H 0.0 **** 0.06
30643 H 94.59393835073755 13.907372521181358 0.8302027228528459 H 0.0 **** 0.06
30644 H 94.01441225065429 12.59886719405496 -0.22761651021961882 H 0.0 **** 0.06
30645 H 92.87342745701511 13.451122512746792 0.8392296644057495 H 0.0 **** 0.06
30646 C 20.100262969976143 87.75645323272514 85.35128717797318 C 0.0 **** -0.24
30647 H 19.944815027690765 88.6781371578556 84.79065413867323 H 0.0 **** 0.06
30648 H 20.407332476013607 87.99733662224892 86.36935410936582 H 0.0 **** 0.06
30649 H 20.8764872632226 87.16410364046963 84.86772901696051 H 0.0 **** 0.06
30650 H 19.1711263429209 87.18628379387242 85.37683552856987 H 0.0 **** 0.06
30651 C 60.66882666841924 15.402298026663289 34.78837061965709 C 0.0 **** -0.24
30652 H 60.03499317429353 16.071630514655055 35.36980147492528 H 0.0 **** 0.06
30653 H 60.867816587771216 14.497903994958733 35.363525547108225 H 0.0 **** 0.06
30654 H 61.609594596932766 15.90180695448879 34.558790077875955 H 0.0 **** 0.06
30655 H 60.16110111867775 15.138996795651508 33.85951000052211 H 0.0 **** 0.06
30656 C 16.047479614900524 0.42474241453318484 37.297745030778486 C 0.0 **** -0.24
30657 H 16.167517660527054 -0.3258957511093996 38.07894023377594 H 0.0 **** 0.06
30658 H 17.027696932514203 0.7114829253807073 36.91599294424566 H 0.0 **** 0.06
30659 H 15.54758090108227 1.3011971614788251 37.71084201133601 H 0.0 **** 0.06
30660 H 15.447801385211662 0.01236804909400746 36.48678812939997 H 0.0 **** 0.06
30661 C 98.76273120773328 0.9335763654688378 83.44425932473581 C 0.0 **** -0.24
30662 H 97.829776595314 1.4401962769942713 83.19753137706346 H 0.0 **** 0.06
30663 H 99.47101129854804 1.6568106317529327 83.85113074167914 H 0.0 **** 0.06
30664 H 99.18002914691374 0.4814551108647862 82.54548101783745 H 0.0 **** 0.06
30665 H 98.57013294568742 0.15774140946193427 84.18561402279448 H 0.0 **** 0.06
30666 C 73.07539612475472 62.213488423587705 85.29101113333866 C 0.0 **** -0.24
30667 H 72.74043829205033 63.24863609614118 85.3567247182847 H 0.0 **** 0.06
30668 H 73.91079239134979 62.05789733685816 85.97411746093958 H 0.0 **** 0.06
30669 H 73.39397651620791 61.998559687959926 84.27129898066477 H 0.0 **** 0.06
30670 H 72.25530552054192 61.54903404859266 85.56385822583827 H 0.0 **** 0.06
30671 C 37.06312218853881 74.70514079827387 96.66214809249149 C 0.0 **** -0.24
30672 H 37.535857618453946 73.82386813164325 97.09521322636544 H 0.0 **** 0.06
30673 H 36.373949545208745 74.39725742204735 95.87496914750184 H 0.0 **** 0.06
30674 H 37.828314259903834 75.35791356981227 96.24061446899026 H 0.0 **** 0.06
30675 H 36.51507598524316 75.24064190965348 97.43694717401078 H 0.0 **** 0.06
30676 C 56.18170749260712 26.94021626084055 22.47037828533003 C 0.0 **** -0.24
30677 H 55.406228490332865 26.94111086250635 21.703623234618732 H 0.0 **** 0.06
30678 H 56.81877920851961 27.815496000357903 22.342340199030602 H 0.0 **** 0.06
30679 H 56.782932498464554 26.036767544701164 22.376476414795462 H 0.0 **** 0.06
30680 H 55.718095555267865 26.968850271739036 23.45651965613166 H 0.0 **** 0.06
30681 C 27.962720187691446 82.20155314574504 26.404979699469692 C 0.0 **** -0.24
30682 H 27.73778283346229 81.991068435221 25.359206240624644 H 0.0 **** 0.06
30683 H 29.043348856742 82.26347089193854 26.538481272835355 H 0.0 **** 0.06
30684 H 27.563949030535525 81.40176102139048 27.03004283111531 H 0.0 **** 0.06
30685 H 27.50570554485398 83.14908718665191 26.691043696005522 H 0.0 **** 0.06
30686 C 92.75056037929176 98.70877487547894 3.3604017160135555 C 0.0 **** -0.24
30687 H 91.97250117889604 99.04578420923058 4.045322382718023 H 0.0 **** 0.06
30688 H 92.78525039454652 99.3719519446368 2.4949176846905567 H 0.0 **** 0.06
30689 H 92.52932643061854 97.69336354773016 3.0312192127549142 H 0.0 **** 0.06
30690 H 93.71364388006461 98.72421313319586 3.8693442437793593 H 0.0 **** 0.06
30691 C 85.19900588068664 49.11117733389901 94.43242994687716 C 0.0 **** -0.24
30692 H 84.7144521177353 49.6027300629446 95.27648997728443 H 0.0 **** 0.06
30693 H 86.13221428162237 49.62497672412371 94.20094557068771 H 0.0 **** 0.06
30694 H 84.53981621583405 49.14674464269996 93.56525714512244 H 0.0 **** 0.06
30695 H 85.40815728324877 48.07289204283987 94.68849251552507 H 0.0 **** 0.06
30696 C 75.43575902376983 67.07916982509255 55.492346914141365 C 0.0 **** -0.24
30697 H 76.3425479676032 66.84507375254225 56.051089815819424 H 0.0 **** 0.06
30698 H 74.88939905919335 66.15947441927293 55.28412621054129 H 0.0 **** 0.06
30699 H 75.7025723067959 67.56457475728809 54.55429500325292 H 0.0 **** 0.06
30700 H 74.80982427456831 67.74906723672026 56.08252393656307 H 0.0 **** 0.06
30701 C 58.88546233188974 43.83485913773805 99.74219227887005 C 0.0 **** -0.24
30702 H 59.14275331078629 44.48664342298798 100.57778930306404 H 0.0 **** 0.06
30703 H 57.83812702007702 43.54491095236844 99.81832676257278 H 0.0 **** 0.06
30704 H 59.51355804121074 42.94434651548761 99.77117148023319 H 0.0 **** 0.06
30705 H 59.049841805952966 44.36563470601632 98.804428759382 H 0.0 **** 0.06
30706 C 39.530646103724656 107.74966841016811 60.93723921535303 C 0.0 **** -0.24
30707 H 38.540145560041424 107.64697943910642 61.37969751275233 H 0.0 **** 0.06
30708 H 39.99386869033122 106.76594802069002 60.85415602374326 H 0.0 **** 0.06
30709 H 40.14666239956616 108.38901096581218 61.5702706481307 H 0.0 **** 0.06
30710 H 39.44214629898977 108.19527755433268 59.946786807890646 H 0.0 **** 0.06
30711 C 97.05253462608016 53.72032194804879 103.5368173049043 C 0.0 **** -0.24
30712 H 97.40522227239353 52.996662568932265 104.27186170626462 H 0.0 **** 0.06
30713 H 96.17711832378825 53.318390349742344 103.02410963580861 H 0.0 **** 0.06
30714 H 97.8411879965297 53.91493147547061 102.810462232281 H 0.0 **** 0.06
30715 H 96.78433182881861 54.64838369917726 104.04030048063747 H 0.0 **** 0.06
30716 C 85.41678703319513 75.50543256280743 96.81972779772134 C 0.0 **** -0.24
30717 H 85.33736326983328 76.28629999355365 97.57527236505443 H 0.0 **** 0.06
30718 H 86.43405436416015 75.11329009576245 96.80894698333836 H 0.0 **** 0.06
30719 H 85.17574778212071 75.92068870088502 95.84123602716737 H 0.0 **** 0.06
30720 H 84.71889527546924 74.7008240379129 97.05464911441129 H 0.0 **** 0.06
30721 C 8.35461478993858 64.51589706842753 64.14549419874348 C 0.0 **** -0.24
30722 H 8.817895959744249 63.53696441856607 64.27471584421957 H 0.0 **** 0.06
30723 H 9.036684336573842 65.17098296860917 63.603767039784714 H 0.0 **** 0.06
30724 H 8.137250000884933 64.94560183049418 65.12360570696666 H 0.0 **** 0.06
30725 H 7.428039577900961 64.40741703763496 63.581349523521624 H 0.0 **** 0.06
30726 C 16.000244928129163 90.77972069611886 2.450702219462542 C 0.0 **** -0.24
30727 H 16.765252085071154 91.452950450148 2.0651124994246572 H 0.0 **** 0.06
30728 H 15.38975692704318 91.30557041867667 3.1863103445735703 H 0.0 **** 0.06
30729 H 16.476225387997175 89.91993837127177 2.921670012318671 H 0.0 **** 0.06
30730 H 15.368224202891767 90.44001616046631 1.6304374195009927 H 0.0 **** 0.06
30731 C 51.39925889160648 32.177905600025774 85.29446031306297 C 0.0 **** -0.24
30732 H 50.6098432605082 32.014857024067474 84.55937395340258 H 0.0 **** 0.06
30733 H 52.30951741939876 31.67532479423589 84.96705889210313 H 0.0 **** 0.06
30734 H 51.086430691862176 31.775081520464255 86.25818280928969 H 0.0 **** 0.06
30735 H 51.58876197576245 33.24689049083384 85.39133968260538 H 0.0 **** 0.06
30736 C 73.06678856943752 56.15381733712712 17.365107480873462 C 0.0 **** -0.24
30737 H 72.31431603306245 55.399245274213285 17.138006691119585 H 0.0 **** 0.06
30738 H 72.7235712933257 56.77255483635926 18.195102427702693 H 0.0 **** 0.06
30739 H 73.22987600090023 56.77948965094464 16.48792087136337 H 0.0 **** 0.06
30740 H 74.00104390846212 55.6625232665256 17.639783485048838 H 0.0 **** 0.06
30741 C 59.89264438309014 29.55638565611912 4.08179129646112 C 0.0 **** -0.24
30742 H 58.87443189980128 29.240845679853265 4.31160349366678 H 0.0 **** 0.06
30743 H 59.934042850279326 30.645276927848016 4.039544978732124 H 0.0 **** 0.06
30744 H 60.19155195111976 29.143643763695167 3.118043327139617 H 0.0 **** 0.06
30745 H 60.56842436725684 29.195640673376488 4.857295137975768 H 0.0 **** 0.06
30746 C 31.456060806046253 73.34086799093829 37.995349532318556 C 0.0 **** -0.24
30747 H 31.958345221783496 74.04599433710032 37.331635716521475 H 0.0 **** 0.06
30748 H 30.63583681855561 73.84552564405173 38.50590021109167 H 0.0 **** 0.06
30749 H 32.167210169184486 72.96612439208765 38.7314959504765 H 0.0 **** 0.06
30750 H 31.064408941007052 72.50880114278534 37.41071350913725 H 0.0 **** 0.06
30751 C 1.8662605993236667 12.365203755652189 98.53084507855644 C 0.0 **** -0.24
30752 H 2.9195186800654795 12.251120731175305 98.78687672010129 H 0.0 **** 0.06
30753 H 1.499074795544118 11.44122078541433 98.0826220794388 H 0.0 **** 0.06
30754 H 1.7516106230778519 13.18403962095826 97.82067261052754 H 0.0 **** 0.06
30755 H 1.2945472044336412 12.58434267737934 99.4322565409823 H 0.0 **** 0.06
30756 C 44.36250009805315 71.98963879453413 68.24134378145303 C 0.0 **** -0.24
30757 H 43.27217525210983 71.97589622731523 68.22794012680734 H 0.0 **** 0.06
30758 H 44.71535920702178 71.8433050832079 69.26135482923873 H 0.0 **** 0.06
30759 H 44.71682087863854 72.95074055280085 67.86809326199156 H 0.0 **** 0.06
30760 H 44.74291600266986 71.1903401964879 67.606097235849 H 0.0 **** 0.06
30761 C 31.21603259625911 32.66907255444562 35.940000312988815 C 0.0 **** -0.24
30762 H 30.501963819918046 32.00583291762109 36.426093510100856 H 0.0 **** 0.06
30763 H 30.829100991287646 32.96755424110506 34.96486882065713 H 0.0 **** 0.06
30764 H 32.164839553991044 32.14811387225416 35.80983824503731 H 0.0 **** 0.06
30765 H 31.369393828778016 33.55444727024843 36.55645845664812 H 0.0 **** 0.06
30766 C 15.37185061118867 3.2312957238135027 60.824750495279375 C 0.0 **** -0.24
30767 H 15.356124468997294 2.4074864674694254 61.53810925051539 H 0.0 **** 0.06
30768 H 16.178814208471177 3.0760351580871657 60.108521027765335 H 0.0 **** 0.06
30769 H 15.5327890208357 4.1692166083527695 61.35712913942831 H 0.0 **** 0.06
30770 H 14.418688268169024 3.272085675852111 60.29662029373367 H 0.0 **** 0.06
30771 C 48.00517888771108 18.24718948848135 39.194010347426115 C 0.0 **** -0.24
30772 H 47.18665758428142 18.624337357487782 39.80813016943105 H 0.0 **** 0.06
30773 H 48.89118155545137 18.113200038785152 39.81403598872879 H 0.0 **** 0.06
30774 H 48.22206088753515 18.96140231712212 38.399414232177776 H 0.0 **** 0.06
30775 H 47.71949013844949 17.291158587427677 38.75566394402392 H 0.0 **** 0.06
30776 C 99.49567158314463 95.28534289862434 96.60841198196879 C 0.0 **** -0.24
30777 H 100.38296376824616 95.69067449112777 96.12337327539797 H 0.0 **** 0.06
30778 H 98.74944185581688 95.03819474549712 95.85125818443568 H 0.0 **** 0.06
30779 H 99.08526736343151 96.02641704188052 97.29422989927356 H 0.0 **** 0.06
30780 H 99.7625593903397 94.38623139434202 97.16306691190498 H 0.0 **** 0.06
30781 C 8.400739378922367 28.944080566942944 30.740562192845772 C 0.0 **** -0.24
30782 H 8.984827965458578 28.049992330898363 30.961006139531122 H 0.0 **** 0.06
30783 H 7.818962488509271 28.78281781325211 29.833135228654925 H 0.0 **** 0.06
30784 H 9.072438730521412 29.78960352551826 30.596713060202205 H 0.0 **** 0.06
30785 H 7.727523880146066 29.151915951301135 31.57202419375838 H 0.0 **** 0.06
30786 C 54.131653194254696 83.81214006506238 4.024036035235483 C 0.0 **** -0.24
30787 H 54.6956065029703 83.65872853212977 4.943589868045294 H 0.0 **** 0.06
30788 H 53.098328717809025 83.50004224568738 4.1758688877315535 H 0.0 **** 0.06
30789 H 54.57518311858137 83.22226444846234 3.222678042940913 H 0.0 **** 0.06
30790 H 54.15684293769996 84.86850388705608 3.754793150722392 H 0.0 **** 0.06
30791 C 74.2917763532435 83.36688759976906 45.51022085970766 C 0.0 **** -0.24
30792 H 75.16190968163781 83.06250034092778 46.09200615263029 H 0.0 **** 0.06
30793 H 73.46514012018855 83.58989911146983 46.18587181190193 H 0.0 **** 0.06
30794 H 74.00421334188222 82.56010338896726 44.83773638467338 H 0.0 **** 0.06
30795 H 74.53599659973482 84.25568091848072 44.928953616748885 H 0.0 **** 0.06
30796 C 88.57325053542053 74.84046568753217 108.6693287158253 C 0.0 **** -0.24
30797 H 89.5419918421922 75.10336294539024 108.24370672904088 H 0.0 **** 0.06
30798 H 87.89964847178021 75.69385530918777 108.59090583413601 H 0.0 **** 0.06
30799 H 88.69827945479403 74.57007444083894 109.71771083225859 H 0.0 **** 0.06
30800 H 88.15481236751441 73.99490730541754 108.1227792782559 H 0.0 **** 0.06
30801 C 44.01343404812051 89.40825455719859 37.60184325588614 C 0.0 **** -0.24
30802 H 44.733736258991385 89.17169624939261 38.38508883178383 H 0.0 **** 0.06
30803 H 44.449181596785536 89.1844676725949 36.62784671472076 H 0.0 **** 0.06
30804 H 43.75708915350776 90.46695697891741 37.651755748428286 H 0.0 **** 0.06
30805 H 43.11388550876747 88.80982554789959 37.7440854773439 H 0.0 **** 0.06
30806 C 108.98423488774472 65.48874082969326 99.17945556341371 C 0.0 **** -0.24
30807 H 109.43838712594942 65.82677224972929 98.24867246636214 H 0.0 **** 0.06
30808 H 109.21821646715674 64.4348617244039 99.33492986365565 H 0.0 **** 0.06
30809 H 107.9032856089581 65.61544047253096 99.12269668713904 H 0.0 **** 0.06
30810 H 109.37688501857087 66.07470109974764 100.00984650549408 H 0.0 **** 0.06
30811 C 106.1474216087883 22.40824311462444 34.11137433715874 C 0.0 **** -0.24
30812 H 105.3184322774419 22.289800356257672 33.41321478357583 H 0.0 **** 0.06
30813 H 105.94459576908298 21.831509967548016 35.01424549601101 H 0.0 **** 0.06
30814 H 106.25699408809018 23.460861258332244 34.36920289621188 H 0.0 **** 0.06
30815 H 107.0657883330222 22.048815253507257 33.648646734914244 H 0.0 **** 0.06
30816 C 63.010037804049816 82.89422286545846 99.81622090120418 C 0.0 **** -0.24
30817 H 63.74739573077116 83.25985162752062 100.53215715584646 H 0.0 **** 0.06
30818 H 63.49404528812775 82.22140797849454 99.10846769371331 H 0.0 **** 0.06
30819 H 62.57782861821393 83.73866858495325 99.27846963256808 H 0.0 **** 0.06
30820 H 62.22222218920099 82.3601882666909 100.34668512495116 H 0.0 **** 0.06
30821 C 25.268244249730913 43.213070908054675 99.53515453623208 C 0.0 **** -0.24
30822 H 25.860290429219503 43.95576144398322 99.00005563146348 H 0.0 **** 0.06
30823 H 24.71116615972187 42.607690367739565 98.81917394811578 H 0.0 **** 0.06
30824 H 24.57106436556566 43.717493472310736 100.20416560962609 H 0.0 **** 0.06
30825 H 25.929717799747635 42.571677901617136 100.11664007618766 H 0.0 **** 0.06
30826 C 107.3449486065366 32.469797852188776 22.50851352347084 C 0.0 **** -0.24
30827 H 106.85696788995728 33.303206053722874 22.003266737315613 H 0.0 **** 0.06
30828 H 106.64511091926414 32.009057037372884 23.206859374203276 H 0.0 **** 0.06
30829 H 108.21535333145056 32.835044166604206 23.054008253169258 H 0.0 **** 0.06
30830 H 107.66113187519107 31.732565392055307 21.770068395900438 H 0.0 **** 0.06
30831 C 83.15588002572584 74.67073857868577 63.69625110583878 C 0.0 **** -0.24
30832 H 82.17860248407253 75.14746118366098 63.77884619844632 H 0.0 **** 0.06
30833 H 83.22169218692652 73.84958799851286 64.40987509972652 H 0.0 **** 0.06
30834 H 83.93511434503893 75.4022372132562 63.91077235357356 H 0.0 **** 0.06
30835 H 83.2881025673911 74.2860442139462 62.68491625256088 H 0.0 **** 0.06
30836 C 56.22137007530501 64.09327251086245 46.259120747234704 C 0.0 **** -0.24
30837 H 56.71227019249145 64.80336911421051 46.92540872836457 H 0.0 **** 0.06
30838 H 56.88190211807647 63.24258544444518 46.0863499346699 H 0.0 **** 0.06
30839 H 55.998820893098156 64.58028322752443 45.31009697646158 H 0.0 **** 0.06
30840 H 55.295297384958786 63.74750040981638 46.71701123007438 H 0.0 **** 0.06
30841 C 101.1759169010228 23.620417878631255 6.342267122345476 C 0.0 **** -0.24
30842 H 101.67850572373663 24.368726493558544 6.95546239905868 H 0.0 **** 0.06
30843 H 100.11664282304896 23.59336115063912 6.598684975020099 H 0.0 **** 0.06
30844 H 101.61963388228389 22.642368204007532 6.527835967247899 H 0.0 **** 0.06
30845 H 101.28938275145788 23.877381078948154 5.289477920091949 H 0.0 **** 0.06
30846 C 26.002364605317823 49.38561467026045 41.75135380678569 C 0.0 **** -0.24
30847 H 26.87270035562421 48.90580126090026 41.303145673751885 H 0.0 **** 0.06
30848 H 25.519177880616414 50.02458338399799 41.01117857111569 H 0.0 **** 0.06
30849 H 26.31873531255462 49.98906213781197 42.60139286241338 H 0.0 **** 0.06
30850 H 25.300351176753168 48.62315428589693 42.08777170483103 H 0.0 **** 0.06
30851 C 37.14909845494013 14.381572542014965 0.7402352864443174 C 0.0 **** -0.24
30852 H 37.78493982630782 15.217680126661548 0.44916040132720525 H 0.0 **** 0.06
30853 H 36.26218111958484 14.362166881084306 0.10724336627741593 H 0.0 **** 0.06
30854 H 36.849817915096125 14.498127614931548 1.7815189995622802 H 0.0 **** 0.06
30855 H 37.70076485954267 13.447949535194937 0.6234060602675839 H 0.0 **** 0.06
30856 C 48.626778323645055 77.22480481615247 59.92268633970437 C 0.0 **** -0.24
30857 H 49.329947649266984 76.51637345553307 59.484208674567 H 0.0 **** 0.06
30858 H 48.73459350672471 78.19346042793136 59.43541240627057 H 0.0 **** 0.06
30859 H 48.83293665848632 77.32831022034237 60.988390870147285 H 0.0 **** 0.06
30860 H 47.60897324731832 76.85890594664234 59.78442348472042 H 0.0 **** 0.06
30861 C 60.7595568298359 88.03925220972701 107.04065371192861 C 0.0 **** -0.24
30862 H 61.0031532877739 88.87901530843138 106.38914432525102 H 0.0 **** 0.06
30863 H 60.101659044475696 88.37936182341554 107.84113465821258 H 0.0 **** 0.06
30864 H 61.67601393115916 87.63487338819516 107.46917889086494 H 0.0 **** 0.06
30865 H 60.25656797971516 87.26452006003666 106.46098302856942 H 0.0 **** 0.06
30866 C 58.587756315992294 103.44321538764558 69.57291496497736 C 0.0 **** -0.24
30867 H 58.67386657354382 102.43261103732165 69.17257055306618 H 0.0 **** 0.06
30868 H 57.535566704513485 103.68442485335129 69.72648835299901 H 0.0 **** 0.06
30869 H 59.0243626555295 104.15084909758907 68.86762835396966 H 0.0 **** 0.06
30870 H 59.11785676986369 103.50372334686803 70.52323018140721 H 0.0 **** 0.06
30871 C 110.17544189519776 106.83731716046516 25.313176402063363 C 0.0 **** -0.24
30872 H 110.05066359881027 106.5610999450647 26.36045630090439 H 0.0 **** 0.06
30873 H 109.21579801969244 106.76116521423553 24.801068709604237 H 0.0 **** 0.06
30874 H 110.89223063925601 106.1647060119411 24.842702340439928 H 0.0 **** 0.06
30875 H 110.54127604367909 107.86153552442777 25.24890514478483 H 0.0 **** 0.06
30876 C 38.46204508968828 95.12564003238607 67.1077219635294 C 0.0 **** -0.24
30877 H 39.4698412798282 94.76013527462871 66.90994973099095 H 0.0 **** 0.06
30878 H 38.248997232142635 95.97146945666178 66.45482620133708 H 0.0 **** 0.06
30879 H 38.388943832280944 95.44082845412169 68.1486456889503 H 0.0 **** 0.06
30880 H 37.74319719948586 94.3283667893986 66.91772502192418 H 0.0 **** 0.06
30881 C 43.288516149231754 72.71653527209253 39.89908708667633 C 0.0 **** -0.24
30882 H 42.614022296022 72.31092776095622 40.65293939521523 H 0.0 **** 0.06
30883 H 43.37111284888849 72.01265503230985 39.07010506375536 H 0.0 **** 0.06
30884 H 44.27215789282292 72.87576890217039 40.340035229716136 H 0.0 **** 0.06
30885 H 42.896570102128976 73.66538983062586 39.53324143757189 H 0.0 **** 0.06
30886 C 48.480931212256706 86.92518502776855 65.8983082294495 C 0.0 **** -0.24
30887 H 47.95032790422388 87.83675830138364 65.62645727219541 H 0.0 **** 0.06
30888 H 49.1305320415934 87.12233630305786 66.75089831367922 H 0.0 **** 0.06
30889 H 49.08261543875233 86.5890124116467 65.05368475609572 H 0.0 **** 0.06
30890 H 47.76035165378116 86.15019539955364 66.16197463091405 H 0.0 **** 0.06
30891 C 71.7731894791454 94.56530487667325 23.609027807052684 C 0.0 **** -0.24
30892 H 71.54755942203602 95.14234533954992 24.50569837268513 H 0.0 **** 0.06
30893 H 72.64749139120636 94.98887154667814 23.11476353080532 H 0.0 **** 0.06
30894 H 70.91988768585293 94.59847937919419 22.931501983236984 H 0.0 **** 0.06
30895 H 71.97768125252969 93.5302164997781 23.88527583071638 H 0.0 **** 0.06
30896 C 31.17358471980849 20.6708052557201 42.83614003278518 C 0.0 **** -0.24
30897 H 31.41031817585641 21.730763839601824 42.92978197931387 H 0.0 **** 0.06
30898 H 30.110985448561642 20.517957709226067 43.02847884062737 H 0.0 **** 0.06
30899 H 31.759235280805022 20.102740823995738 43.55901897174863 H 0.0 **** 0.06
30900 H 31.41331371304735 20.332766399998718 41.82814526192442 H 0.0 **** 0.06
30901 C 57.01183138843959 64.14386810061472 86.57203022732324 C 0.0 **** -0.24
30902 H 56.47800926570608 64.70172412135884 85.80389141313091 H 0.0 **** 0.06
30903 H 58.07811701545708 64.14202073873935 86.34534918878146 H 0.0 **** 0.06
30904 H 56.64380889395443 63.11730071105268 86.59666069181253 H 0.0 **** 0.06
30905 H 56.84696870323353 64.61201454461542 87.54216161186477 H 0.0 **** 0.06
30906 C 1.5330730156759387 81.73668954438767 40.48056509165684 C 0.0 **** -0.24
30907 H 0.9010719743586293 81.25745988658997 39.73234895214205 H 0.0 **** 0.06
30908 H 0.9204708627075746 82.37445492866229 41.11771785427561 H 0.0 **** 0.06
30909 H 2.2914001196167817 82.34105270235469 39.98120751691624 H 0.0 **** 0.06
30910 H 2.019482789779275 80.97366815430496 41.087674295405634 H 0.0 **** 0.06
30911 C 7.723693062908794 82.25094334557922 18.161363598442676 C 0.0 **** -0.24
30912 H 7.888333162713792 83.14869134585685 18.75834681839231 H 0.0 **** 0.06
30913 H 8.681582636758705 81.86882712136297 17.809179751630893 H 0.0 **** 0.06
30914 H 7.091883449041276 82.49351860819762 17.30731585302884 H 0.0 **** 0.06
30915 H 7.2325580590986505 81.49308845262026 18.773562270253677 H 0.0 **** 0.06
30916 C 91.91316571271894 81.034347661722 75.26706679479865 C 0.0 **** -0.24
30917 H 91.29605728993033 80.4635354759638 74.57251987610225 H 0.0 **** 0.06
30918 H 91.70699440491188 82.09756408346249 75.14444152155318 H 0.0 **** 0.06
30919 H 92.96529642576877 80.84103234503868 75.06036209914753 H 0.0 **** 0.06
30920 H 91.68225217231328 80.73351467389887 76.28901894014098 H 0.0 **** 0.06
30921 C 76.25457846866487 54.401202749424186 88.926936689152 C 0.0 **** -0.24
30922 H 76.56942576111123 55.22835596658797 89.56339995152518 H 0.0 **** 0.06
30923 H 75.43987422754486 54.73002397505175 88.28099367041773 H 0.0 **** 0.06
30924 H 75.91337371115952 53.573822159925186 89.54874162732534 H 0.0 **** 0.06
30925 H 77.0946290842079 54.074006980685056 88.31476384295433 H 0.0 **** 0.06
30926 C 85.45087536157313 35.930754725597126 14.881955784718741 C 0.0 **** -0.24
30927 H 85.05459293385617 35.15191319493735 15.533635806170096 H 0.0 **** 0.06
30928 H 84.7864033197278 36.79533616336224 14.904151414156416 H 0.0 **** 0.06
30929 H 85.51941721342907 35.55080048123713 13.862547364959752 H 0.0 **** 0.06
30930 H 86.4419291123764 36.224227331746874 15.227815605610033 H 0.0 **** 0.06
30931 C 36.11159843498538 2.427431837590107 39.209940089651695 C 0.0 **** -0.24
30932 H 36.431754147887034 2.5082154296630783 38.171445972178844 H 0.0 **** 0.06
30933 H 35.079308564342966 2.0770000298287696 39.24545040453836 H 0.0 **** 0.06
30934 H 36.17998302374491 3.4046361744077824 39.687837524557835 H 0.0 **** 0.06
30935 H 36.75348083915355 1.7204797098933842 39.73464033739634 H 0.0 **** 0.06
30936 C 106.3594027146539 35.10164669838164 9.037134787546762 C 0.0 **** -0.24
30937 H 106.70375591566184 35.57242336701128 8.116562188045904 H 0.0 **** 0.06
30938 H 107.20977804282792 34.66583838551807 9.562376341357862 H 0.0 **** 0.06
30939 H 105.64047013991954 34.31777598386395 8.796703011183666 H 0.0 **** 0.06
30940 H 105.88387536098007 35.84917690071032 9.670886306032386 H 0.0 **** 0.06
30941 C 99.7916777038618 19.118095358321796 52.38636589604099 C 0.0 **** -0.24
30942 H 100.61279492327722 19.693602147010964 52.81304627938315 H 0.0 **** 0.06
30943 H 100.18217887902571 18.423296020007967 51.64239111468427 H 0.0 **** 0.06
30944 H 99.08073297765971 19.79607379213806 51.91288238974124 H 0.0 **** 0.06
30945 H 99.28970403484878 18.559965822644017 53.177167784363895 H 0.0 **** 0.06
30946 C 29.905241947915158 71.78392758598005 70.76043759026277 C 0.0 **** -0.24
30947 H 29.603786063503406 72.42405854055998 69.93048125929317 H 0.0 **** 0.06
30948 H 30.992950234370966 71.71444544990106 70.78901521903958 H 0.0 **** 0.06
30949 H 29.48043351327206 70.78934510144624 70.62536650914831 H 0.0 **** 0.06
30950 H 29.54396549701829 72.21008953430011 71.6968040209681 H 0.0 **** 0.06
30951 C 24.584750917059353 58.68527274150625 67.35427656141134 C 0.0 **** -0.24
30952 H 25.466571020009525 58.7816597093983 66.72208631095643 H 0.0 **** 0.06
30953 H 23.972663529276787 59.58234236063706 67.26417201198082 H 0.0 **** 0.06
30954 H 24.893818712471642 58.559377087538735 68.39227326154656 H 0.0 **** 0.06
30955 H 24.006385739120077 57.816809230088126 67.03957262826819 H 0.0 **** 0.06
30956 C 26.564334754740855 77.03364664102912 56.58931326787558 C 0.0 **** -0.24
30957 H 26.39075689968496 76.21923546286298 57.29279951664586 H 0.0 **** 0.06
30958 H 27.480076912304582 77.55929850574395 56.86189207222401 H 0.0 **** 0.06
30959 H 25.723191739975846 77.72611353363787 56.6223702528319 H 0.0 **** 0.06
30960 H 26.662707789077103 76.62841601099525 55.58201160667062 H 0.0 **** 0.06
30961 C 29.859954556381695 45.54712499649861 71.17678636030149 C 0.0 **** -0.24
30962 H 29.003485826313707 45.32710177816591 70.53976453049023 H 0.0 **** 0.06
30963 H 29.644559295344322 45.23226018707706 72.19774951093393 H 0.0 **** 0.06
30964 H 30.057636626868913 46.61965388162963 71.16121720526348 H 0.0 **** 0.06
30965 H 30.734334521649487 45.01139183274029 70.80726452727822 H 0.0 **** 0.06
30966 C 45.10168347521429 78.91996348543393 56.56610214126323 C 0.0 **** -0.24
30967 H 44.24507434638278 78.45731725557059 56.07465421880886 H 0.0 **** 0.06
30968 H 45.068977292238344 79.99875499756857 56.41265858170283 H 0.0 **** 0.06
30969 H 46.02251271189098 78.52044557433294 56.14183258145357 H 0.0 **** 0.06
30970 H 45.068853209966335 78.70274334722626 57.63387895898825 H 0.0 **** 0.06
30971 C 56.60737286961346 72.32674092748817 51.778795857865305 C 0.0 **** -0.24
30972 H 57.25178585618231 72.73494398645465 50.999209445005356 H 0.0 **** 0.06
30973 H 57.0807467494729 72.4649216869887 52.75070993011108 H 0.0 **** 0.06
30974 H 56.45009128996884 71.26269532830781 51.597770225130176 H 0.0 **** 0.06
30975 H 55.64817649916049 72.84335771097938 51.76430081188325 H 0.0 **** 0.06
30976 C 99.5227204185533 18.73780429230672 55.881373153443086 C 0.0 **** -0.24
30977 H 99.90323393364942 19.350889483995957 55.06478714273649 H 0.0 **** 0.06
30978 H 99.10749452608506 19.38136712884608 56.65673632570718 H 0.0 **** 0.06
30979 H 100.33637986510641 18.144270287321888 56.29816616998676 H 0.0 **** 0.06
30980 H 98.74452385268918 18.073618075724653 55.50373236000343 H 0.0 **** 0.06
30981 C 100.79490505720061 104.66589156259835 68.30016164584052 C 0.0 **** -0.24
30982 H 101.02760289358358 105.55167010766303 67.7095765209983 H 0.0 **** 0.06
30983 H 99.71498880256142 104.58615176173066 68.4242993642689 H 0.0 **** 0.06
30984 H 101.26845781411421 104.74573658549315 69.27830287009445 H 0.0 **** 0.06
30985 H 101.16918679421926 103.77923872908082 67.78672737153597 H 0.0 **** 0.06
30986 C 67.96845758172758 61.16349235815997 84.65292648944771 C 0.0 **** -0.24
30987 H 69.04403422233601 61.304194975505354 84.7602922187038 H 0.0 **** 0.06
30988 H 67.64775162177179 60.330747141325176 85.27953630888857 H 0.0 **** 0.06
30989 H 67.73332826561254 60.94769280499351 83.6112281485434 H 0.0 **** 0.06
30990 H 67.45070968038596 62.07205252149902 84.96187845487671 H 0.0 **** 0.06
30991 C 3.3247761138397323 45.32702047510375 18.432383994732476 C 0.0 **** -0.24
30992 H 3.171136831636261 46.29089924312808 18.917983049472042 H 0.0 **** 0.06
30993 H 3.6215643582044663 44.58800910757924 19.177026660170753 H 0.0 **** 0.06
30994 H 4.107738667211265 45.420459770808066 17.67971110520469 H 0.0 **** 0.06
30995 H 2.3975476322076474 45.00958110364547 17.954830496184428 H 0.0 **** 0.06
30996 C 3.043531785277125 1.0858298755252553 72.68920372800903 C 0.0 **** -0.24
30997 H 3.881476859123012 1.393753365220304 72.06470644831853 H 0.0 **** 0.06
30998 H 2.9154038317967377 0.005834973507297114 72.61903997566378 H 0.0 **** 0.06
30999 H 2.1351339042582254 1.5828209522286798 72.34888933497797 H 0.0 **** 0.06
31000 H 3.2421023263919864 1.3621846296418836 73.72479222208517 H 0.0 **** 0.06
31001 C 90.01900000004645 86.95091462043953 96.24543610142467 C 0.0 **** -0.24
31002 H 90.10809519799153 87.58815691627325 97.12493937355742 H 0.0 **** 0.06
31003 H 89.1540025991884 87.2619107936842 95.65724076838484 H 0.0 **** 0.06
31004 H 89.89125771865804 85.91482688717308 96.55917939896284 H 0.0 **** 0.06
31005 H 90.92068721599725 87.03871762150123 95.63930448906544 H 0.0 **** 0.06
31006 C 1.7124907243885934 102.85242214333965 72.11785209895936 C 0.0 **** -0.24
31007 H 2.70747890337376 103.29685603205792 72.1244662569415 H 0.0 **** 0.06
31008 H 1.0582156613516354 103.4162628122483 72.78371817969196 H 0.0 **** 0.06
31009 H 1.7738739740893301 101.81910524613758 72.45811226042855 H 0.0 **** 0.06
31010 H 1.3104605769796978 102.87845036046542 71.10495771540911 H 0.0 **** 0.06
31011 C 40.223301049842576 30.994762809489373 94.95671692294952 C 0.0 **** -0.24
31012 H 40.45479532581123 30.025933430892593 95.39788208930821 H 0.0 **** 0.06
31013 H 40.71789804715891 31.781236179167337 95.52877312392107 H 0.0 **** 0.06
31014 H 39.14574773315124 31.155010093213605 94.97516526094208 H 0.0 **** 0.06
31015 H 40.57734533579162 31.01814313217693 93.92589309927692 H 0.0 **** 0.06
31016 C 30.39082201064494 84.80145714113723 86.42000203236819 C 0.0 **** -0.24
31017 H 31.14996902310375 85.5829238761301 86.38788842935614 H 0.0 **** 0.06
31018 H 29.41726666769921 85.2487449139109 86.62679299408518 H 0.0 **** 0.06
31019 H 30.637194426237784 84.08727561449828 87.20598366873378 H 0.0 **** 0.06
31020 H 30.35790457559986 84.2879125227505 85.45952659797359 H 0.0 **** 0.06
31021 C 70.22063456171357 27.330861735544573 94.00585098311069 C 0.0 **** -0.24
31022 H 70.93681263598612 26.581407600591316 93.66770716887055 H 0.0 **** 0.06
31023 H 70.25837712556975 28.195039284467377 93.34164208534816 H 0.0 **** 0.06
31024 H 70.47251196706772 27.640817687066985 95.02043752584859 H 0.0 **** 0.06
31025 H 69.21778955363156 26.906338209863783 93.99311143667501 H 0.0 **** 0.06
31026 C 1.0970459090345912 43.75321317598137 22.819292385828874 C 0.0 **** -0.24
31027 H 0.39970862951642516 43.153869112009716 23.40546914525936 H 0.0 **** 0.06
31028 H 0.6935434521647039 43.902935077990385 21.818013785529843 H 0.0 **** 0.06
31029 H 2.0538620333094713 43.23512109805869 22.753063653607967 H 0.0 **** 0.06
31030 H 1.2395457371247716 44.71883704359714 23.30332649917318 H 0.0 **** 0.06
31031 C 38.90998448493333 53.09985996357637 31.343335377052426 C 0.0 **** -0.24
31032 H 39.70342390929116 53.42004103105436 32.0187950027929 H 0.0 **** 0.06
31033 H 38.77674140784521 52.02066899345042 31.42653348906242 H 0.0 **** 0.06
31034 H 39.18049709060361 53.35524361591838 30.318705268071596 H 0.0 **** 0.06
31035 H 37.980175393241694 53.602398898276135 31.61031181269209 H 0.0 **** 0.06
31036 C 42.850756703403576 66.2688229520886 60.29515391823617 C 0.0 **** -0.24
31037 H 43.260000172911504 65.50771165087333 59.63098594933575 H 0.0 **** 0.06
31038 H 42.204977050148344 66.93875906461263 59.72606424417904 H 0.0 **** 0.06
31039 H 43.66604500813766 66.84027463909284 60.73847847834065 H 0.0 **** 0.06
31040 H 42.271518440151354 65.78861560901457 61.084215833178746 H 0.0 **** 0.06
31041 C 40.64263740917775 43.86348641519198 1.479924073886309 C 0.0 **** -0.24
31042 H 39.67556530934735 43.42841263914092 1.2246689586531403 H 0.0 **** 0.06
31043 H 41.14368058014685 44.19201931846288 0.5700067452170572 H 0.0 **** 0.06
31044 H 41.25478769159113 43.11654310063865 1.9836118347511729 H 0.0 **** 0.06
31045 H 40.49220963163975 44.71759335899537 2.141669222091224 H 0.0 **** 0.06
31046 C 83.77832242780275 20.524571498683528 104.58817984872294 C 0.0 **** -0.24
31047 H 84.16523246978429 21.505370803171743 104.86532979807849 H 0.0 **** 0.06
31048 H 83.93489505724219 20.36109026350468 103.5218794051159 H 0.0 **** 0.06
31049 H 82.71240844464208 20.478062955459862 104.81119793362951 H 0.0 **** 0.06
31050 H 84.30277342241799 19.755097379500242 105.15468356811787 H 0.0 **** 0.06
31051 C 19.480429872526628 74.3759078649781 34.500374804477815 C 0.0 **** -0.24
31052 H 20.250576996837168 73.90090115567205 33.89371616985545 H 0.0 **** 0.06
31053 H 19.710302073381 75.43571624752988 34.61463216733071 H 0.0 **** 0.06
31054 H 19.44797852701265 73.90319206712485 35.482350084675545 H 0.0 **** 0.06
31055 H 18.511971654205354 74.26385760428852 34.01125495128758 H 0.0 **** 0.06
31056 C 40.24342653576653 29.234171933279868 76.8045389514286 C 0.0 **** -0.24
31057 H 39.51332516487852 28.468370309310586 76.54438025660565 H 0.0 **** 0.06
31058 H 40.701423104343974 28.988679446215457 77.76286370295917 H 0.0 **** 0.06
31059 H 39.74629371251936 30.201451553753458 76.87509960556832 H 0.0 **** 0.06
31060 H 41.01406281137727 29.277638257341323 76.03387740384822 H 0.0 **** 0.06
31061 C 18.42950163376088 11.259233035171917 21.780304853123354 C 0.0 **** -0.24
31062 H 17.48259805117715 11.180436436441369 22.31628296267577 H 0.0 **** 0.06
31063 H 18.941057569529193 12.173523225343956 22.08002083784504 H 0.0 **** 0.06
31064 H 18.239301315710804 11.283294530957846 20.707766012545008 H 0.0 **** 0.06
31065 H 19.05369748734131 10.397894920222654 22.02014848440372 H 0.0 **** 0.06
31066 C 86.71340156571404 14.701790971351226 36.802916383164245 C 0.0 **** -0.24
31067 H 86.4064914451244 15.583622438183628 36.24180935119182 H 0.0 **** 0.06
31068 H 87.70027128646552 14.87022726485516 37.235329564579416 H 0.0 **** 0.06
31069 H 86.75113232214798 13.840843868250332 36.13539618555714 H 0.0 **** 0.06
31070 H 85.99508724212461 14.511156724521747 37.60155644653625 H 0.0 **** 0.06
31071 C 25.988433722149626 17.087220187334168 7.91663294979071 C 0.0 **** -0.24
31072 H 27.059421636699312 17.1701632272746 8.101327470507272 H 0.0 **** 0.06
31073 H 25.47269998977437 17.923526685886202 8.389851663553088 H 0.0 **** 0.06
31074 H 25.62056490681779 16.150145859626093 8.333055700793693 H 0.0 **** 0.06
31075 H 25.802883798955524 17.10601913569579 6.843123046604035 H 0.0 **** 0.06
31076 C 67.35617641593348 93.56365018367664 16.874334650728457 C 0.0 **** -0.24
31077 H 67.1676963524751 93.72706891414136 17.934428614385638 H 0.0 **** 0.06
31078 H 66.96739823030757 92.58785412190393 16.58167897626197 H 0.0 **** 0.06
31079 H 68.42990413526115 93.59857168120038 16.686840480217455 H 0.0 **** 0.06
31080 H 66.86035003841243 94.34134522636232 16.29280013534259 H 0.0 **** 0.06
31081 C 15.740737398082459 46.81147867182571 38.429334115210494 C 0.0 **** -0.24
31082 H 16.801331376200025 47.04492705204575 38.33954010171726 H 0.0 **** 0.06
31083 H 15.491018705895556 45.99112492370466 37.756566676105024 H 0.0 **** 0.06
31084 H 15.151438553835163 47.6904626225749 38.16623742439609 H 0.0 **** 0.06
31085 H 15.518883081082393 46.5206998839526 39.45610287519267 H 0.0 **** 0.06
31086 C 70.75727408972466 19.5307679506073 55.98919549036212 C 0.0 **** -0.24
31087 H 70.54181299550618 18.48779786465066 56.2253643772727 H 0.0 **** 0.06
31088 H 70.73210615679727 19.670793811844263 54.907715877788306 H 0.0 **** 0.06
31089 H 71.7456786818554 19.79164016458671 56.36625083784244 H 0.0 **** 0.06
31090 H 70.00928323149935 20.17057084138959 56.45655362548858 H 0.0 **** 0.06
31091 C 57.33292781443862 19.062814334426264 13.271194790293833 C 0.0 **** -0.24
31092 H 57.312624324220224 18.326308506184603 12.467117225655556 H 0.0 **** 0.06
31093 H 57.939982253097355 18.68576650572524 14.0943050985735 H 0.0 **** 0.06
31094 H 56.317087533189635 19.245591446799722 13.621722659812121 H 0.0 **** 0.06
31095 H 57.76099801498111 19.993549269295244 12.89940708492145 H 0.0 **** 0.06
31096 C 19.499895183879847 109.48431432289125 32.54493682972981 C 0.0 **** -0.24
31097 H 20.046610257280392 109.55394243923112 31.60468193250793 H 0.0 **** 0.06
31098 H 20.102596410379657 109.90941505098954 33.34805598491738 H 0.0 **** 0.06
31099 H 19.287201825650627 108.43727450812439 32.76433138751875 H 0.0 **** 0.06
31100 H 18.56280568110116 110.03446400277454 32.462236756733034 H 0.0 **** 0.06
31101 C 69.53269022860903 109.08644182200699 3.221308030484778 C 0.0 **** -0.24
31102 H 68.46353384218514 108.91363772556365 3.1026739564676262 H 0.0 **** 0.06
31103 H 70.08677128995114 108.28952323358409 2.7244220105306596 H 0.0 **** 0.06
31104 H 69.78446412169048 109.0965253842919 4.281591926318669 H 0.0 **** 0.06
31105 H 69.79700539916414 110.04595497305085 2.7755661867672217 H 0.0 **** 0.06
31106 C 38.286106117227405 107.82232996886603 41.87586168905536 C 0.0 **** -0.24
31107 H 38.0909766169309 108.51101408672378 41.05347466044244 H 0.0 **** 0.06
31108 H 39.348332039619265 107.84050423543655 42.118971746916394 H 0.0 **** 0.06
31109 H 37.99873526409334 106.81317725868954 41.57955346162459 H 0.0 **** 0.06
31110 H 37.70695197157261 108.12503425848317 42.747771821399674 H 0.0 **** 0.06
31111 C 5.208562998322691 2.2668504124758613 44.636182196668415 C 0.0 **** -0.24
31112 H 5.087792614383986 1.9549887832115473 45.673615843126555 H 0.0 **** 0.06
31113 H 6.257640607171652 2.180741807272483 44.35150824893071 H 0.0 **** 0.06
31114 H 4.886632239323944 3.3027901374534565 44.529654232103866 H 0.0 **** 0.06
31115 H 4.602877739370541 1.6300513214141858 43.99262494387672 H 0.0 **** 0.06
31116 C 20.713645919731277 60.37502642509335 41.96128518800654 C 0.0 **** -0.24
31117 H 19.66875961122895 60.29763255293631 41.65925113719213 H 0.0 **** 0.06
31118 H 20.779952990472168 60.34317532871022 43.04929698299 H 0.0 **** 0.06
31119 H 21.1265904868946 61.31648590914479 41.598983438641795 H 0.0 **** 0.06
31120 H 21.276759749621135 59.54401998317988 41.5380408441342 H 0.0 **** 0.06
31121 C 22.931161094094783 26.66402986873618 19.972440569125467 C 0.0 **** -0.24
31122 H 23.729360438752842 25.947748984962743 19.777537421919288 H 0.0 **** 0.06
31123 H 21.980362529039834 26.247863288059705 19.637809051909496 H 0.0 **** 0.06
31124 H 23.133850299590012 27.58959647297013 19.432298597383138 H 0.0 **** 0.06
31125 H 22.882263074051668 26.87065848912067 21.04139908626877 H 0.0 **** 0.06
31126 C 38.89443721482476 45.20790489594576 69.81014119865588 C 0.0 **** -0.24
31127 H 39.203571933592514 45.19700566608178 70.85510944748343 H 0.0 **** 0.06
31128 H 39.773262719221464 45.31042360992698 69.172513216354 H 0.0 **** 0.06
31129 H 38.221554684588384 46.04833651280672 69.6389058474121 H 0.0 **** 0.06
31130 H 38.38081018448452 44.27658926826349 69.57344062582163 H 0.0 **** 0.06
31131 C 13.28543194673249 98.9994742136311 80.19310094535206 C 0.0 **** -0.24
31132 H 12.913321468566267 99.54114117557675 81.06321327689895 H 0.0 **** 0.06
31133 H 12.704955127321487 99.28151770278518 79.31454652070374 H 0.0 **** 0.06
31134 H 13.188976976378207 97.92722361403374 80.36457642039994 H 0.0 **** 0.06
31135 H 14.334373469599267 99.24931974276517 80.03257479974155 H 0.0 **** 0.06
31136 C 22.151554697079703 53.962059978857454 42.8457971179011 C 0.0 **** -0.24
31137 H 22.333712099626013 52.99055317319772 43.30560463794643 H 0.0 **** 0.06
31138 H 23.01659403631801 54.60702366060291 43.00593023017595 H 0.0 **** 0.06
31139 H 21.269963501982588 54.41793330251107 43.297467634882366 H 0.0 **** 0.06
31140 H 21.986540905378007 53.83385531160737 41.776279602836155 H 0.0 **** 0.06
31141 C 22.67199424472997 100.51429259345713 46.859615977286296 C 0.0 **** -0.24
31142 H 23.351691508290127 100.10436497548466 46.111704368212486 H 0.0 **** 0.06
31143 H 23.249718859776344 100.94891846780712 47.67548322167505 H 0.0 **** 0.06
31144 H 22.0378753398719 99.71681245138257 47.248613965139754 H 0.0 **** 0.06
31145 H 22.050294555537704 101.28385702322896 46.40370069889974 H 0.0 **** 0.06
31146 C 28.110458043229926 65.67210905008491 3.6791299654455543 C 0.0 **** -0.24
31147 H 27.583924887310786 65.39931847601702 4.5941916654468145 H 0.0 **** 0.06
31148 H 27.389660580555756 65.99877755530596 2.9294564059603516 H 0.0 **** 0.06
31149 H 28.65876984342208 64.80793876440697 3.304725646051338 H 0.0 **** 0.06
31150 H 28.808708282220437 66.48212928378882 3.8899724622202427 H 0.0 **** 0.06
31151 C 101.06094288015801 109.5980560506012 97.83535659498176 C 0.0 **** -0.24
31152 H 100.132699036714 109.04655290951099 97.98517779210806 H 0.0 **** 0.06
31153 H 101.20662539934285 109.78011239085723 96.770131326252 H 0.0 **** 0.06
31154 H 101.8961520709194 109.01370655989655 98.22191969542928 H 0.0 **** 0.06
31155 H 101.00678239056815 110.54917497437617 98.36345988326136 H 0.0 **** 0.06
31156 C 110.66656349869115 27.755085223784192 44.631475531347746 C 0.0 **** -0.24
31157 H 111.19489031999802 27.18903013324055 45.398079791875944 H 0.0 **** 0.06
31158 H 111.38978153716243 28.216799741867078 43.9579800296608 H 0.0 **** 0.06
31159 H 110.06189460988202 28.530101820711252 45.102892079212836 H 0.0 **** 0.06
31160 H 110.02080358721048 27.084245819742478 44.065298583202264 H 0.0 **** 0.06
31161 C 55.20141985432648 97.26670044464883 21.93061437675746 C 0.0 **** -0.24
31162 H 55.12468902156136 98.19971837831223 21.373213626459673 H 0.0 **** 0.06
31163 H 54.680372631136635 97.36843597272008 22.882872446886623 H 0.0 **** 0.06
31164 H 56.251273817066966 97.03743084906253 22.112435241544745 H 0.0 **** 0.06
31165 H 54.74827385097509 96.46069040486698 21.353175840113238 H 0.0 **** 0.06
31166 C 73.8987681992291 35.3557490669408 1.2975093289695394 C 0.0 **** -0.24
31167 H 73.7802538437958 35.388581114903474 0.21483019990594698 H 0.0 **** 0.06
31168 H 73.46208557477232 34.43353365470645 1.6823480089444445 H 0.0 **** 0.06
31169 H 73.39241379493956 36.21237394487832 1.7435573316480202 H 0.0 **** 0.06
31170 H 74.95918986888489 35.38879000711262 1.548499238477575 H 0.0 **** 0.06
31171 C 90.22526981617816 47.535115855822426 32.09947040192304 C 0.0 **** -0.24
31172 H 89.47676439918587 46.77651320571749 31.871062035117788 H 0.0 **** 0.06
31173 H 91.0585418588758 47.44425477203424 31.402695188778623 H 0.0 **** 0.06
31174 H 90.58556370917631 47.39413386878394 33.118142618827136 H 0.0 **** 0.06
31175 H 89.77782354804734 48.52504492633315 32.00618566120929 H 0.0 **** 0.06
31176 C 21.793209896397116 38.09254545980616 102.37461811819105 C 0.0 **** -0.24
31177 H 21.04298169025094 38.87641262811147 102.26919208661457 H 0.0 **** 0.06
31178 H 21.46247237134162 37.37211788282531 103.12263049692615 H 0.0 **** 0.06
31179 H 22.73949105031963 38.53391053430414 102.68589537783703 H 0.0 **** 0.06
31180 H 21.925757085848005 37.586601245225836 101.4174177679709 H 0.0 **** 0.06
31181 C 105.635872402869 91.54516386808643 37.28947835100024 C 0.0 **** -0.24
31182 H 105.68651079569453 92.34594868428255 38.02705285553702 H 0.0 **** 0.06
31183 H 105.16661136384698 90.66894551096408 37.73691125391264 H 0.0 **** 0.06
31184 H 106.64298940747778 91.29049034297185 36.95978689948021 H 0.0 **** 0.06
31185 H 105.04633092286896 91.87724480074945 36.43424979258168 H 0.0 **** 0.06
31186 C 103.02622882469939 54.83531326629618 46.78917536278047 C 0.0 **** -0.24
31187 H 103.32022522766158 55.85926044898839 47.02309861999919 H 0.0 **** 0.06
31188 H 103.57745052720338 54.49029968989142 45.91411306541457 H 0.0 **** 0.06
31189 H 101.95690523254723 54.80260767271357 46.582847758036536 H 0.0 **** 0.06
31190 H 103.25250543633496 54.19021029298229 47.63929175415569 H 0.0 **** 0.06
31191 C 14.789408941707393 60.88122638964515 25.675011123248225 C 0.0 **** -0.24
31192 H 14.542308746601151 61.8238864662799 25.185813566594533 H 0.0 **** 0.06
31193 H 15.571669331135212 60.373586118587724 25.110940422719295 H 0.0 **** 0.06
31194 H 13.901142293093471 60.25024618366794 25.714761647079513 H 0.0 **** 0.06
31195 H 15.14052376477271 61.079668493553626 26.68759338569987 H 0.0 **** 0.06
31196 C 1.4532888385746503 52.27763571713098 52.87124733110674 C 0.0 **** -0.24
31197 H 1.5313896453431255 51.592687665425984 52.02721407390315 H 0.0 **** 0.06
31198 H 0.609007392779489 52.95051643954929 52.71635001225842 H 0.0 **** 0.06
31199 H 2.3716984662359835 52.85820913967777 52.95377581672405 H 0.0 **** 0.06
31200 H 1.300346098008788 51.708074769117445 53.788823299925866 H 0.0 **** 0.06
31201 C 17.68445279154912 11.043884887220667 90.53701976472394 C 0.0 **** -0.24
31202 H 18.089119132567475 11.789908218573384 91.22151601045846 H 0.0 **** 0.06
31203 H 16.811490486282835 11.453868594176406 90.02841093456738 H 0.0 **** 0.06
31204 H 17.39592200751359 10.155329815116575 91.098351743845 H 0.0 **** 0.06
31205 H 18.443114913213236 10.778813330133865 89.80078299903079 H 0.0 **** 0.06
31206 C 110.2917903490204 20.098266747643663 8.098514332964413 C 0.0 **** -0.24
31207 H 110.43332934030148 19.81321758020806 9.14115254052453 H 0.0 **** 0.06
31208 H 109.56488449261832 20.90847155360612 8.038733107221333 H 0.0 **** 0.06
31209 H 109.92803497416416 19.240935708562375 7.532418728669228 H 0.0 **** 0.06
31210 H 111.24300888857772 20.431567773440094 7.6811708922582795 H 0.0 **** 0.06
31211 C 85.60402380752251 77.25747440784994 85.66146143063605 C 0.0 **** -0.24
31212 H 85.70873367745602 77.35234136739658 84.58008735252463 H 0.0 **** 0.06
31213 H 84.59589676661308 76.91770939864494 85.90035340675439 H 0.0 **** 0.06
31214 H 85.78231178506127 78.22477492771844 86.1299822691351 H 0.0 **** 0.06
31215 H 86.32928048592856 76.53349284053394 86.03384457775326 H 0.0 **** 0.06
31216 C 71.82323765434279 96.82541380663771 7.679766670438028 C 0.0 **** -0.24
31217 H 72.02349219329432 97.86486843172048 7.939354663855227 H 0.0 **** 0.06
31218 H 70.80646377726114 96.56584926338928 7.978321481046464 H 0.0 **** 0.06
31219 H 72.5308252216899 96.17843348945395 8.198523886370538 H 0.0 **** 0.06
31220 H 71.9301826546399 96.69231088951851 6.603874463234945 H 0.0 **** 0.06
31221 C 34.624699391480306 11.091592549211228 47.830478176290036 C 0.0 **** -0.24
31222 H 34.45880063923062 12.133115789997703 47.55614872673156 H 0.0 **** 0.06
31223 H 33.74810351772385 10.709371849770719 48.35286951215231 H 0.0 **** 0.06
31224 H 35.49562599058754 11.021304951297239 48.482647079473246 H 0.0 **** 0.06
31225 H 34.797130399033904 10.502803355550228 46.929149934304874 H 0.0 **** 0.06
31226 C 45.899637331746646 22.02933293868448 57.83040403158741 C 0.0 **** -0.24
31227 H 45.300874959001135 22.70285496057745 57.217452625286306 H 0.0 **** 0.06
31228 H 46.72736457699284 22.58125684693355 58.27503455898505 H 0.0 **** 0.06
31229 H 46.291729847696615 21.224264367785242 57.20792764687319 H 0.0 **** 0.06
31230 H 45.27762559089183 21.60784196306802 58.619513301885306 H 0.0 **** 0.06
31231 C 47.10689829744594 109.2700901133302 34.48271880657684 C 0.0 **** -0.24
31232 H 46.75564764673567 109.95814059648072 35.25147509332575 H 0.0 **** 0.06
31233 H 46.66293231364443 108.2879474758088 34.64445861265165 H 0.0 **** 0.06
31234 H 48.19335627534724 109.19169152661235 34.53433770722526 H 0.0 **** 0.06
31235 H 46.81598761845859 109.64427672350261 33.500481993821154 H 0.0 **** 0.06
31236 C 94.73530984528101 26.246425239934865 10.786584881316458 C 0.0 **** -0.24
31237 H 94.71374885677228 25.54771638955667 9.95020290963842 H 0.0 **** 0.06
31238 H 94.67331635106758 27.267757107924382 10.409326596612772 H 0.0 **** 0.06
31239 H 95.66529805304313 26.119346042574918 11.341243849985915 H 0.0 **** 0.06
31240 H 93.88951625878411 26.049633055389037 11.445744802141093 H 0.0 **** 0.06
31241 C 99.33924523209268 95.88538110469851 38.455391676478314 C 0.0 **** -0.24
31242 H 99.73462160137046 96.51866046588333 39.249797445813755 H 0.0 **** 0.06
31243 H 98.79428255850496 95.04979110686355 38.89544941026389 H 0.0 **** 0.06
31244 H 100.16257620751936 95.50504026307064 37.850686222670845 H 0.0 **** 0.06
31245 H 98.66487976343407 96.46825916058496 37.82776986787826 H 0.0 **** 0.06
31246 C 61.88014602034556 45.97624480527668 28.0231805204686 C 0.0 **** -0.24
31247 H 61.322423876406845 45.3258185324885 28.695987579739153 H 0.0 **** 0.06
31248 H 62.8332592196096 45.51000314626512 27.774078805766976 H 0.0 **** 0.06
31249 H 62.06058501425491 46.935024108034156 28.51153475730547 H 0.0 **** 0.06
31250 H 61.30395180420663 46.13653324033642 27.111450507278306 H 0.0 **** 0.06
31251 C 47.835221287210146 104.31383886081521 37.41843250359105 C 0.0 **** -0.24
31252 H 47.93201148679532 104.39974131189423 36.33640980110492 H 0.0 **** 0.06
31253 H 47.9650557944353 103.2719109120522 37.71355613161973 H 0.0 **** 0.06
31254 H 46.8462000524369 104.6568113788579 37.72215207426706 H 0.0 **** 0.06
31255 H 48.59621461071953 104.92671578311786 37.90160097876157 H 0.0 **** 0.06
31256 C 71.00062551587214 23.0387200496987 41.270779423168506 C 0.0 **** -0.24
31257 H 70.9149257514252 23.397524095818873 40.24453383994802 H 0.0 **** 0.06
31258 H 71.96360118007527 23.34166272028589 41.681373284812054 H 0.0 **** 0.06
31259 H 70.92452120316791 21.952013467264432 41.282163896394266 H 0.0 **** 0.06
31260 H 70.19784661116289 23.465811737335414 41.871904583040745 H 0.0 **** 0.06
31261 C 92.01565540639088 75.38775072572645 40.893710447793865 C 0.0 **** -0.24
31262 H 91.12156151596795 74.84905674151027 41.20810137493055 H 0.0 **** 0.06
31263 H 92.90006721807504 74.80589931582652 41.15324544638503 H 0.0 **** 0.06
31264 H 92.0540532413613 76.3537771535408 41.39753214214045 H 0.0 **** 0.06
31265 H 91.986165599799 75.54144075129773 39.81465368519952 H 0.0 **** 0.06
31266 C 100.0097944175883 81.48136659407774 107.92899614695048 C 0.0 **** -0.24
31267 H 100.73325687710275 82.28215601549867 107.77550311782183 H 0.0 **** 0.06
31268 H 99.029436447725 81.91140397022562 108.13124050215505 H 0.0 **** 0.06
31269 H 100.32010676225042 80.86848506844127 108.7752704617131 H 0.0 **** 0.06
31270 H 99.95771289575055 80.86256360631766 107.03275335153575 H 0.0 **** 0.06
31271 C 17.06930611129127 103.44446882050417 68.5118956095157 C 0.0 **** -0.24
31272 H 17.135576391156974 102.95472880733453 69.48333973717217 H 0.0 **** 0.06
31273 H 16.290129080052793 104.20662932194611 68.54072775706027 H 0.0 **** 0.06
31274 H 16.826179614072785 102.70527213955128 67.7481655915384 H 0.0 **** 0.06
31275 H 18.02568507378254 103.91069561419022 68.27458863360471 H 0.0 **** 0.06
31276 C 50.82030337698841 10.783164574293167 93.93164218483717 C 0.0 **** -0.24
31277 H 49.82688893643271 10.382559902359738 93.72951998592094 H 0.0 **** 0.06
31278 H 51.291343998633266 10.199907536527101 94.72337492571334 H 0.0 **** 0.06
31279 H 50.7354432287052 11.822949324748016 94.2468058543533 H 0.0 **** 0.06
31280 H 51.42712618225162 10.72488260990777 93.02738442939895 H 0.0 **** 0.06
31281 C 1.1237280716192117 55.80852303124761 7.80917880031825 C 0.0 **** -0.24
31282 H 0.21392012238750624 55.929712848533 7.220620143513202 H 0.0 **** 0.06
31283 H 0.8603189168450882 55.644339770312016 8.854113349531502 H 0.0 **** 0.06
31284 H 1.7335852726869376 56.70863564273638 7.724277240956383 H 0.0 **** 0.06
31285 H 1.6856395550260999 54.95264883228588 7.436541546490446 H 0.0 **** 0.06
31286 C 99.90424968494388 91.01506229555562 28.560040303071077 C 0.0 **** -0.24
31287 H 99.08893416695406 90.30726672046212 28.40574567227975 H 0.0 **** 0.06
31288 H 100.30137281416502 91.3282821554845 27.59400960069405 H 0.0 **** 0.06
31289 H 100.6940968636265 90.53802224788541 29.140987805362585 H 0.0 **** 0.06
31290 H 99.53139371608206 91.88552504184715 29.098940773687303 H 0.0 **** 0.06
31291 C 10.638911860142159 95.51733995694383 30.389583680398218 C 0.0 **** -0.24
31292 H 9.765385775402166 94.9397579748641 30.085440592704373 H 0.0 **** 0.06
31293 H 10.357657729586862 96.56352016547187 30.51170999897313 H 0.0 **** 0.06
31294 H 11.412164794090586 95.43462582796138 29.626197817619584 H 0.0 **** 0.06
31295 H 11.018903046282816 95.13001621234044 31.335740022468315 H 0.0 **** 0.06
31296 C 106.3368301808272 23.674476370478544 67.23977688219486 C 0.0 **** -0.24
31297 H 105.65184452036098 24.506926404437877 67.40014928444657 H 0.0 **** 0.06
31298 H 106.15223712781568 22.90256513259054 67.9873370542415 H 0.0 **** 0.06
31299 H 107.36352931250964 24.027512926472866 67.3269303467834 H 0.0 **** 0.06
31300 H 106.17838657245068 23.260282276290397 66.24375999595895 H 0.0 **** 0.06
31301 C 81.68948673513263 62.600414542803605 6.880864568530598 C 0.0 **** -0.24
31302 H 81.56233876981713 63.161361388595026 7.807109026429913 H 0.0 **** 0.06
31303 H 82.20669854139247 61.66436552119677 7.091477735131605 H 0.0 **** 0.06
31304 H 82.275961273124 63.19050447424311 6.177535231062137 H 0.0 **** 0.06
31305 H 80.71133516574845 62.387345303605116 6.44926434116465 H 0.0 **** 0.06
31306 C 81.15786784478955 99.55545194052706 98.90844898020785 C 0.0 **** -0.24
31307 H 80.13761624476922 99.79670438236542 98.60990472738129 H 0.0 **** 0.06
31308 H 81.15251396277053 99.13331686437812 99.91324847884174 H 0.0 **** 0.06
31309 H 81.76349150292648 100.4611778277216 98.89721106776408 H 0.0 **** 0.06
31310 H 81.578344503282 98.82981207106286 98.211401673411 H 0.0 **** 0.06
31311 C 32.0257537637203 0.7712417268006391 51.72715315429019 C 0.0 **** -0.24
31312 H 31.90485846926191 -0.03487362288647944 52.45099783165551 H 0.0 **** 0.06
31313 H 32.10971930970618 1.7216309268158767 52.252886752353106 H 0.0 **** 0.06
31314 H 31.160461738835863 0.7964679352288471 51.064098761819366 H 0.0 **** 0.06
31315 H 32.92788679412632 0.5986339552414108 51.140050696703724 H 0.0 **** 0.06
31316 C 73.46082775040142 7.5944735405782495 17.564150382116964 C 0.0 **** -0.24
31317 H 73.48662289071575 6.656374503435757 17.00860236377632 H 0.0 **** 0.06
31318 H 74.03254868175736 8.35086081390493 17.024111190767314 H 0.0 **** 0.06
31319 H 73.89882634122802 7.444181780389414 18.550723408127226 H 0.0 **** 0.06
31320 H 72.42883997815699 7.926374592205605 17.670604976019405 H 0.0 **** 0.06
31321 C 68.89541470175327 35.153438980974784 95.65275491833512 C 0.0 **** -0.24
31322 H 68.58119580642152 35.53044612844627 96.6254818976201 H 0.0 **** 0.06
31323 H 69.77382502325116 35.7047716908898 95.31630683111544 H 0.0 **** 0.06
31324 H 68.08625103673089 35.28304691411512 94.93382189360011 H 0.0 **** 0.06
31325 H 69.1413717651592 34.09448132318914 95.73551097882681 H 0.0 **** 0.06
31326 C 78.1771373044595 31.48844300222364 109.17384340638213 C 0.0 **** -0.24
31327 H 77.25175372797662 31.97108697805494 108.86134588312748 H 0.0 **** 0.06
31328 H 78.5381007573256 30.842288635478823 108.37304898766504 H 0.0 **** 0.06
31329 H 77.99287233546204 30.892381395439493 110.06708618681324 H 0.0 **** 0.06
31330 H 78.92719275312692 32.24953753609997 109.39299576289429 H 0.0 **** 0.06
31331 C 36.440747592219346 39.148964244771705 70.35591858321516 C 0.0 **** -0.24
31332 H 35.87790867634408 38.23268684991228 70.53633438743634 H 0.0 **** 0.06
31333 H 35.76467158091037 39.924706666322166 69.99534308113874 H 0.0 **** 0.06
31334 H 37.211276015019315 38.961169122676836 69.60822367895969 H 0.0 **** 0.06
31335 H 36.90716918189143 39.47691532899373 71.2851858998626 H 0.0 **** 0.06
31336 C 87.27258281767868 16.36783735586674 54.41486089509673 C 0.0 **** -0.24
31337 H 86.76799531267872 15.47164684108457 54.77657731447327 H 0.0 **** 0.06
31338 H 88.03364455037871 16.08689131379273 53.686970734721804 H 0.0 **** 0.06
31339 H 87.743609468208 16.8822550183931 55.253403185201876 H 0.0 **** 0.06
31340 H 86.54508819667538 17.02916498670044 53.9451503149945 H 0.0 **** 0.06
31341 C 105.28258384431389 9.901354803469019 20.478923815533484 C 0.0 **** -0.24
31342 H 106.269416166112 9.747927044715993 20.915083876414364 H 0.0 **** 0.06
31343 H 104.51779300198997 9.680627283118099 21.22403259735578 H 0.0 **** 0.06
31344 H 105.15750473222154 9.23954252257488 19.62137585831633 H 0.0 **** 0.06
31345 H 105.18636879334126 10.938164560441777 20.154347171322286 H 0.0 **** 0.06
31346 C 62.16286063924133 106.66180853703958 55.99787102162058 C 0.0 **** -0.24
31347 H 61.66934105058152 107.34100948836308 55.30179395671705 H 0.0 **** 0.06
31348 H 62.33448864395814 107.17356712047096 56.94441139123043 H 0.0 **** 0.06
31349 H 63.116559033154374 106.34314643936506 55.578377850807136 H 0.0 **** 0.06
31350 H 61.52982730270986 105.790372609393 56.16450217217395 H 0.0 **** 0.06
31351 C 4.232889300052761 1.655401606011866 1.7468891259371446 C 0.0 **** -0.24
31352 H 5.101436598972668 2.2817386999600116 1.9506148479234469 H 0.0 **** 0.06
31353 H 3.9268081880326804 1.1504970587624603 2.6643702416063206 H 0.0 **** 0.06
31354 H 4.4894935215551754 0.9128095441642676 0.9913985352814336 H 0.0 **** 0.06
31355 H 3.4152066442981095 2.2765332849789646 1.3831912122600158 H 0.0 **** 0.06
31356 C 86.28462900317794 78.17890893785903 55.41279908230848 C 0.0 **** -0.24
31357 H 86.70938321835922 79.1062321432929 55.02909446343108 H 0.0 **** 0.06
31358 H 86.75223971965607 77.9328149266419 56.36655309974975 H 0.0 **** 0.06
31359 H 86.46758991420836 77.37477002790519 54.70025249649518 H 0.0 **** 0.06
31360 H 85.2114132789456 78.30299135049164 55.55488095792623 H 0.0 **** 0.06
31361 C 1.4090275399935877 96.69979758059715 45.370835454541215 C 0.0 **** -0.24
31362 H 0.8912162145447837 97.52921346632588 45.853008114495424 H 0.0 **** 0.06
31363 H 2.4799601768743287 96.90588615817457 45.34692709488028 H 0.0 **** 0.06
31364 H 1.0381784713351294 96.58207707515908 44.35239419056917 H 0.0 **** 0.06
31365 H 1.2282083360873344 95.78346916020135 45.93189010843054 H 0.0 **** 0.06
31366 C 43.251681418722455 15.124731806743483 87.53518231979707 C 0.0 **** -0.24
31367 H 42.242443533415894 14.992799022780474 87.14411659227427 H 0.0 **** 0.06
31368 H 43.876768690702164 14.291331968896017 87.21327956258112 H 0.0 **** 0.06
31369 H 43.217936475567114 15.154647874334586 88.62451242046157 H 0.0 **** 0.06
31370 H 43.66799678874642 16.058618272527696 87.1584180979552 H 0.0 **** 0.06
31371 C 100.83436884882354 88.79086861538383 1.323263632581984 C 0.0 **** -0.24
31372 H 100.63341580821975 88.28800709113457 0.37636977209189126 H 0.0 **** 0.06
31373 H 99.99956412765857 89.44762788766138 1.5698039201528502 H 0.0 **** 0.06
31374 H 101.74697009647028 89.38119006490678 1.234267351551864 H 0.0 **** 0.06
31375 H 100.95761026457112 88.04673166568551 2.109298885490972 H 0.0 **** 0.06
31376 C 95.1808224085143 16.160887074796975 71.94282676354942 C 0.0 **** -0.24
31377 H 94.54988552900838 15.384453566803643 71.50986209071868 H 0.0 **** 0.06
31378 H 94.5987381261302 17.074273233768025 72.0685939507324 H 0.0 **** 0.06
31379 H 96.02350573402413 16.354926862891105 71.27977241404494 H 0.0 **** 0.06
31380 H 95.5505154150382 15.829148541209406 72.91291250322342 H 0.0 **** 0.06
31381 C 107.05022214455454 37.440435355992946 42.314338063388135 C 0.0 **** -0.24
31382 H 106.90679594230392 37.22517686654231 41.2557874479061 H 0.0 **** 0.06
31383 H 107.91945230010677 38.085934926519656 42.43978911434408 H 0.0 **** 0.06
31384 H 107.20850714814301 36.508200334060234 42.85655983925187 H 0.0 **** 0.06
31385 H 106.1652464531065 37.94211520972303 42.70627185946313 H 0.0 **** 0.06
31386 C 82.0004555714291 100.29377223604718 27.78722604249694 C 0.0 **** -0.24
31387 H 81.37465787967115 99.5809203532192 27.249947538061065 H 0.0 **** 0.06
31388 H 82.27647211501794 99.87623024934067 28.755744143242225 H 0.0 **** 0.06
31389 H 81.44706261051007 101.22101374202157 27.935964585781903 H 0.0 **** 0.06
31390 H 82.90042624961316 100.49608047714742 27.20708653138658 H 0.0 **** 0.06
31391 C 61.49589038192481 69.16346521484456 44.01553584594109 C 0.0 **** -0.24
31392 H 61.04333058093536 69.63770801603835 44.886504349329755 H 0.0 **** 0.06
31393 H 62.04356256567243 69.90960711968557 43.43917640340942 H 0.0 **** 0.06
31394 H 60.71470741591189 68.72560589170052 43.39368526352729 H 0.0 **** 0.06
31395 H 62.18141012539917 68.38174697827367 44.342564904248036 H 0.0 **** 0.06
31396 C 10.890550568940114 66.75020682899753 97.23326646946089 C 0.0 **** -0.24
31397 H 11.93475715445274 66.93716603584889 97.48659563009414 H 0.0 **** 0.06
31398 H 10.269275531918538 66.91322884145916 98.11386051821114 H 0.0 **** 0.06
31399 H 10.778190874174939 65.72010761476355 96.89464920158832 H 0.0 **** 0.06
31400 H 10.582308117338854 67.42877173491985 96.43903860624064 H 0.0 **** 0.06
31401 C 97.54746346914996 67.53635702043988 41.69771081397562 C 0.0 **** -0.24
31402 H 98.5645466332428 67.49815963158466 42.08725992079866 H 0.0 **** 0.06
31403 H 97.00890621276496 66.63812695846025 41.99934561994826 H 0.0 **** 0.06
31404 H 97.57769876917676 67.59495248962779 40.60883009266303 H 0.0 **** 0.06
31405 H 97.03985287752054 68.41567957213732 42.09384091091499 H 0.0 **** 0.06
31406 C 39.66317342335472 101.66081357702997 43.717920671762016 C 0.0 **** -0.24
31407 H 39.87139747904453 101.42245729355717 42.6746686509979 H 0.0 **** 0.06
31408 H 40.60106436671447 101.84708667876156 44.24186788254664 H 0.0 **** 0.06
31409 H 39.14553723279113 100.82300030294856 44.18518230004571 H 0.0 **** 0.06
31410 H 39.03539120302122 102.54958222442644 43.76947099074387 H 0.0 **** 0.06
31411 C 4.908245496382875 36.162658484647736 15.065599022960086 C 0.0 **** -0.24
31412 H 5.898915089117878 36.57520835796794 15.26053021138685 H 0.0 **** 0.06
31413 H 4.898827525398531 35.691739858399245 14.082147586600328 H 0.0 **** 0.06
31414 H 4.169696247269357 36.96318301906952 15.093260472299164 H 0.0 **** 0.06
31415 H 4.668760404181427 35.419701101286236 15.82637359510477 H 0.0 **** 0.06
31416 C 55.56226689600138 42.11139854265937 10.819356378054039 C 0.0 **** -0.24
31417 H 54.524020571707524 41.81105754122342 10.960315879582126 H 0.0 **** 0.06
31418 H 55.90435342961754 42.6570520185885 11.698724797350025 H 0.0 **** 0.06
31419 H 55.63851563061273 42.75301529653453 9.941280741492747 H 0.0 **** 0.06
31420 H 56.180732614587974 41.225244986388816 10.677660405932642 H 0.0 **** 0.06
31421 C 43.14973740654864 9.91716567880552 85.65158810108994 C 0.0 **** -0.24
31422 H 42.256203725124806 10.283722434671464 86.15792147824652 H 0.0 **** 0.06
31423 H 43.73506293015356 9.308763691018475 86.34101524209825 H 0.0 **** 0.06
31424 H 43.748492657992074 10.76396639054073 85.31465118459562 H 0.0 **** 0.06
31425 H 42.85769226348788 9.313755680689013 84.792158211042 H 0.0 **** 0.06
31426 C 52.11026477699102 0.9538922893195263 12.723815605403619 C 0.0 **** -0.24
31427 H 51.35784705673304 0.5224776396283914 12.062797632106797 H 0.0 **** 0.06
31428 H 52.21135527065494 2.018870173762423 12.51158314616671 H 0.0 **** 0.06
31429 H 53.06613947317442 0.4574886270064553 12.558359659114704 H 0.0 **** 0.06
31430 H 51.803708292062126 0.8169518059577854 13.761137730272896 H 0.0 **** 0.06
31431 C 78.50303074075762 109.98086614639858 44.94032225113356 C 0.0 **** -0.24
31432 H 77.73659387699729 110.52660525745537 45.490653141808856 H 0.0 **** 0.06
31433 H 78.21624047028706 109.91131252838255 43.891140019553205 H 0.0 **** 0.06
31434 H 78.60379337191091 108.97772043479671 45.35733714118829 H 0.0 **** 0.06
31435 H 79.45440294385759 110.50562997446299 45.02439103318606 H 0.0 **** 0.06
31436 C 101.38228781896755 81.49594857340543 90.15237047818407 C 0.0 **** -0.24
31437 H 101.43015808403669 81.60944803291636 91.23646418232323 H 0.0 **** 0.06
31438 H 100.66321398665256 80.71644762710295 89.90076796496551 H 0.0 **** 0.06
31439 H 102.36654006356306 81.2208178075283 89.77298897310192 H 0.0 **** 0.06
31440 H 101.07056831755216 82.43890070449146 89.70299205073283 H 0.0 **** 0.06
31441 C 98.468150727269 110.55555021492691 108.85597703088884 C 0.0 **** -0.24
31442 H 99.23997645706059 110.05286896026062 108.27250006618405 H 0.0 **** 0.06
31443 H 98.81694057815946 111.55030372202974 109.13754753870994 H 0.0 **** 0.06
31444 H 98.25616559054171 109.97593849219409 109.75424607075487 H 0.0 **** 0.06
31445 H 97.56134870687666 110.64454017595426 108.25725786203564 H 0.0 **** 0.06
31446 C 84.50842810306494 67.41619722931266 14.629629171106842 C 0.0 **** -0.24
31447 H 84.97836286470036 66.4384273059414 14.732162056087958 H 0.0 **** 0.06
31448 H 83.42425082125595 67.30346352010956 14.659268852605933 H 0.0 **** 0.06
31449 H 84.80151713959248 67.86336244022368 13.68019735091967 H 0.0 **** 0.06
31450 H 84.829430664396 68.06081178928619 15.448718437069232 H 0.0 **** 0.06
31451 C 43.669170903091725 20.50534749247042 47.454621476616836 C 0.0 **** -0.24
31452 H 44.616075679626874 20.025611629605592 47.703969868302245 H 0.0 **** 0.06
31453 H 43.11163336609994 20.704910822107937 48.37009465338802 H 0.0 **** 0.06
31454 H 43.08791395803311 19.846912834981055 46.80908844281103 H 0.0 **** 0.06
31455 H 43.864141609303346 21.443711401694948 46.93600283120992 H 0.0 **** 0.06
31456 C 94.39282629271547 80.55611999858073 37.811777922771 C 0.0 **** -0.24
31457 H 93.98310745421027 80.78681970736548 38.7958800121084 H 0.0 **** 0.06
31458 H 94.41731055181256 81.46214842847229 37.20709396551638 H 0.0 **** 0.06
31459 H 93.76650408896099 79.80965898026372 37.32394788599012 H 0.0 **** 0.06
31460 H 95.40469191873976 80.16451400546865 37.922856752352885 H 0.0 **** 0.06
31461 C 97.07612125688584 110.66849091026319 74.21847460461314 C 0.0 **** -0.24
31462 H 98.10029616448261 110.36973849518051 73.9919915936405 H 0.0 **** 0.06
31463 H 96.63107527378263 109.94721058255982 74.90386463370487 H 0.0 **** 0.06
31464 H 96.49523876774602 110.70115039908244 73.29702596467436 H 0.0 **** 0.06
31465 H 97.08019225866182 111.65508176257853 74.68114902127681 H 0.0 **** 0.06
31466 C 84.55293017784878 33.47082046316689 108.43219395440303 C 0.0 **** -0.24
31467 H 84.11287099421607 32.494086988426034 108.63526390783592 H 0.0 **** 0.06
31468 H 85.15131218964123 33.41735627921804 107.5226026783393 H 0.0 **** 0.06
31469 H 85.18699753645188 33.76434814500942 109.26842585131917 H 0.0 **** 0.06
31470 H 83.75865812635205 34.206382180191866 108.3020031752884 H 0.0 **** 0.06
31471 C 107.41381997411338 102.8786751910455 34.15622445227001 C 0.0 **** -0.24
31472 H 108.41144074039572 103.18530023581972 34.47131910934837 H 0.0 **** 0.06
31473 H 106.95557778573861 102.27454873452405 34.939910680426294 H 0.0 **** 0.06
31474 H 107.48531396355625 102.29292217332751 33.2394132521934 H 0.0 **** 0.06
31475 H 106.80332744488184 103.76397412751967 33.97507684588348 H 0.0 **** 0.06
31476 C 65.88750416849649 99.75396592758722 15.463727564441058 C 0.0 **** -0.24
31477 H 66.41025552393484 99.07473612314521 16.137273876279494 H 0.0 **** 0.06
31478 H 64.81448062061801 99.68747179700787 15.641928856917957 H 0.0 **** 0.06
31479 H 66.10365494131727 99.47910597561372 14.43145842839428 H 0.0 **** 0.06
31480 H 66.22449529116994 100.77453099623659 15.646650169710398 H 0.0 **** 0.06
31481 C 68.9206086197598 110.81068988419368 15.967125809685847 C 0.0 **** -0.24
31482 H 69.289107295904 111.38902208401073 15.119301905507353 H 0.0 **** 0.06
31483 H 68.33835708267374 109.96350072313288 15.6023663137757 H 0.0 **** 0.06
31484 H 68.29053422338855 111.44312482786052 16.59166802159878 H 0.0 **** 0.06
31485 H 69.76434737292931 110.44600995827795 16.553223254323296 H 0.0 **** 0.06
31486 C 51.084811154816514 75.68603390521191 32.581947968303666 C 0.0 **** -0.24
31487 H 51.35696091309637 75.91164377109867 31.55044301302354 H 0.0 **** 0.06
31488 H 50.14695175127198 75.12954129575286 32.59628377397911 H 0.0 **** 0.06
31489 H 50.964072949289815 76.61611353067892 33.13657655066527 H 0.0 **** 0.06
31490 H 51.87067912692313 75.08745859927754 33.042191214128025 H 0.0 **** 0.06
31491 C 39.78152182347327 91.33449000114743 69.47482900187788 C 0.0 **** -0.24
31492 H 39.176080567234976 90.531690770524 69.8944657066395 H 0.0 **** 0.06
31493 H 39.24827558906022 91.79473849137355 68.64257330254298 H 0.0 **** 0.06
31494 H 40.72842676013229 90.927228873896 69.11942756399486 H 0.0 **** 0.06
31495 H 39.973304377465674 92.08430186879613 70.2428494343344 H 0.0 **** 0.06
31496 C 7.487633283841021 2.8638393473363806 11.336616560483762 C 0.0 **** -0.24
31497 H 7.10180060253208 3.261198744813086 10.397719658573763 H 0.0 **** 0.06
31498 H 7.968143218612852 3.6648892693677197 11.898821135388175 H 0.0 **** 0.06
31499 H 8.214486065247968 2.079936954411835 11.12697940466191 H 0.0 **** 0.06
31500 H 6.6657825414435905 2.450809010518327 11.921297686331243 H 0.0 **** 0.06
31501 C 53.52701214684089 10.392798417358875 10.92385838515412 C 0.0 **** -0.24
31502 H 54.60032575239853 10.210510896534316 10.982458077362253 H 0.0 **** 0.06
31503 H 53.349434137375965 11.38146874907713 10.499884576516706 H 0.0 **** 0.06
31504 H 53.095767978298284 10.342832957918262 11.923356569083694 H 0.0 **** 0.06
31505 H 53.06493614980866 9.636669073805024 10.289446136239349 H 0.0 **** 0.06
31506 C 12.034956360061585 60.86800886611921 34.98041494146253 C 0.0 **** -0.24
31507 H 12.911723739878312 60.30524716049102 35.2994774931953 H 0.0 **** 0.06
31508 H 11.665494356616449 61.46715315948548 35.813175842905025 H 0.0 **** 0.06
31509 H 11.257330767861333 60.17609734581107 34.65703495763313 H 0.0 **** 0.06
31510 H 12.306516910960028 61.52343024850565 34.15264236884991 H 0.0 **** 0.06
31511 C 68.52864348412322 39.67789383938333 35.16613126507531 C 0.0 **** -0.24
31512 H 68.13113352399006 40.21605177324048 36.026562316892026 H 0.0 **** 0.06
31513 H 67.82156658312658 39.74368006591715 34.33854911548541 H 0.0 **** 0.06
31514 H 68.68054247929376 38.631205938650595 35.431312162024625 H 0.0 **** 0.06
31515 H 69.47970780693782 40.11967243567864 34.86875934562812 H 0.0 **** 0.06
31516 C 54.27661862673534 3.66137977348391 23.471891027303315 C 0.0 **** -0.24
31517 H 53.55316225092639 4.1838300292347 22.846015374795684 H 0.0 **** 0.06
31518 H 53.91890921187348 3.64234165188695 24.501425516348718 H 0.0 **** 0.06
31519 H 55.23480553650256 4.177969621903001 23.42925957182422 H 0.0 **** 0.06
31520 H 54.39749693425733 2.6402388366742464 23.110324502126446 H 0.0 **** 0.06
31521 C 61.713236501957624 12.921364541670169 74.5010458097577 C 0.0 **** -0.24
31522 H 62.14144028416251 12.67463435367932 73.52942321008946 H 0.0 **** 0.06
31523 H 62.09375911051154 13.888669022635597 74.83020436331368 H 0.0 **** 0.06
31524 H 61.989961663872634 12.155752548265227 75.22538906911203 H 0.0 **** 0.06
31525 H 60.62706741632246 12.967828043770798 74.41662638224444 H 0.0 **** 0.06
31526 C 24.613979481158868 105.19623133551013 47.371069583361304 C 0.0 **** -0.24
31527 H 24.91686093325658 105.73992254439172 48.265838502922094 H 0.0 **** 0.06
31528 H 24.20224280235016 104.22815886585616 47.6568830655366 H 0.0 **** 0.06
31529 H 25.480736533859908 105.04593363540168 46.72718717035879 H 0.0 **** 0.06
31530 H 23.85792550041914 105.77039549223139 46.835518810010036 H 0.0 **** 0.06
31531 C 0.8566568629718745 30.20073987024182 41.165597993645406 C 0.0 **** -0.24
31532 H 1.762042751677484 30.779764128155023 41.34982360195431 H 0.0 **** 0.06
31533 H 1.1264641360999121 29.22520788164138 40.760720085432695 H 0.0 **** 0.06
31534 H 0.22671526868242609 30.730078615896332 40.45141051055873 H 0.0 **** 0.06
31535 H 0.3142546858977653 30.068525404400816 42.10201935628186 H 0.0 **** 0.06
31536 C 31.990507911930592 24.922148203124166 24.0566325736157 C 0.0 **** -0.24
31537 H 30.906298764044777 24.851897288549054 23.975484496071203 H 0.0 **** 0.06
31538 H 32.27534642734429 25.962156109413698 24.22118163443122 H 0.0 **** 0.06
31539 H 32.44751485168365 24.56190097271069 23.13512548899294 H 0.0 **** 0.06
31540 H 32.33210823673272 24.315215753888282 24.893858257928088 H 0.0 **** 0.06
31541 C 25.406507929887454 96.66515100386027 49.54489768353386 C 0.0 **** -0.24
31542 H 25.788046107788347 97.46267954415168 50.182140618260235 H 0.0 **** 0.06
31543 H 24.527083638048566 96.21822440919925 50.010526675450706 H 0.0 **** 0.06
31544 H 26.175556731404242 95.90364976482977 49.41542361400457 H 0.0 **** 0.06
31545 H 25.13377331663912 97.07671495853072 48.57294465390896 H 0.0 **** 0.06
31546 C 14.782800042700622 23.2895557496501 39.516744028706 C 0.0 **** -0.24
31547 H 14.943238991159049 22.555155570741565 40.30566254246901 H 0.0 **** 0.06
31548 H 15.103321558912686 24.27230373407547 39.864975522854365 H 0.0 **** 0.06
31549 H 13.724019146988937 23.321845265287983 39.260014351489076 H 0.0 **** 0.06
31550 H 15.362033677135248 23.00887080102717 38.63629746162559 H 0.0 **** 0.06
31551 C 30.11756407376845 109.77797368834709 101.09167864758025 C 0.0 **** -0.24
31552 H 30.44978070098807 108.80327348684763 101.45111214199436 H 0.0 **** 0.06
31553 H 29.29333244223011 110.13149448180306 101.71095967016984 H 0.0 **** 0.06
31554 H 29.783416029303822 109.68829252512577 100.05813953608848 H 0.0 **** 0.06
31555 H 30.94413415875337 110.48644052492563 101.14617973403588 H 0.0 **** 0.06
31556 C 64.94678778020062 15.702908586009386 106.46943040570008 C 0.0 **** -0.24
31557 H 64.97862546907214 14.625592414170853 106.63436977564852 H 0.0 **** 0.06
31558 H 63.931373524205696 16.065453278901515 106.62726871452575 H 0.0 **** 0.06
31559 H 65.25741838507088 15.922196275590721 105.44710054187694 H 0.0 **** 0.06
31560 H 65.62264226511832 16.196308485152997 107.16853700006035 H 0.0 **** 0.06
31561 C 67.20661170935095 25.84522324234373 49.479371163245446 C 0.0 **** -0.24
31562 H 67.1912906857159 24.94402691554478 48.86585978361762 H 0.0 **** 0.06
31563 H 68.16760651709652 25.921311845327974 49.98920965996908 H 0.0 **** 0.06
31564 H 66.40569402207059 25.794880043605517 50.217283877089045 H 0.0 **** 0.06
31565 H 67.06173965899664 26.718955077151158 48.8441157077626 H 0.0 **** 0.06
31566 C 77.26926296141716 53.95837661097309 41.24030908588534 C 0.0 **** -0.24
31567 H 77.18360076049049 53.4226575556915 40.29504943892826 H 0.0 **** 0.06
31568 H 76.31624088125398 54.433686826207655 41.47557471683015 H 0.0 **** 0.06
31569 H 78.04447644295504 54.72056916560746 41.15700640765999 H 0.0 **** 0.06
31570 H 77.53200015291617 53.25865729836411 42.03315821439165 H 0.0 **** 0.06
31571 C 70.53233130212149 4.058131039196676 35.416146596450965 C 0.0 **** -0.24
31572 H 69.86891303537209 4.548172693503881 34.70341093723025 H 0.0 **** 0.06
31573 H 70.9758162951193 3.1764610451112407 34.95297185957043 H 0.0 **** 0.06
31574 H 69.96351049641619 3.7607190091507388 36.29638840613994 H 0.0 **** 0.06
31575 H 71.32214114657421 4.750046962149952 35.710543527435576 H 0.0 **** 0.06
31576 C 8.318279276211427 11.76955296997994 103.7253428579055 C 0.0 **** -0.24
31577 H 8.197934387903757 11.348390687264157 102.72682535117781 H 0.0 **** 0.06
31578 H 7.727490976054327 11.19244167273456 104.4366180941231 H 0.0 **** 0.06
31579 H 7.97756293885449 12.805109720323685 103.72592964731876 H 0.0 **** 0.06
31580 H 9.369156223928158 11.732561658253985 104.01101395548494 H 0.0 **** 0.06
31581 C 57.159838556572936 55.8039631362237 64.6767511398345 C 0.0 **** -0.24
31582 H 58.21169570682278 55.64913913604591 64.91945848512785 H 0.0 **** 0.06
31583 H 56.793383676017015 56.687246181611904 65.20129540923799 H 0.0 **** 0.06
31584 H 56.583647442414815 54.9325266431027 64.9870283520934 H 0.0 **** 0.06
31585 H 57.05179034533148 55.94746864810349 63.60273933049274 H 0.0 **** 0.06
31586 C 16.949494533960603 64.7344548299742 5.9082580383687855 C 0.0 **** -0.24
31587 H 15.880999143081567 64.65116800457209 5.707956595022154 H 0.0 **** 0.06
31588 H 17.125440699758485 65.55037130349422 6.609277286945712 H 0.0 **** 0.06
31589 H 17.47855205303358 64.93502363133058 4.976061127618266 H 0.0 **** 0.06
31590 H 17.312176659055353 63.800321771357886 6.337873991752247 H 0.0 **** 0.06
31591 C 26.39654267711873 62.73729354264066 0.7569437005991233 C 0.0 **** -0.24
31592 H 27.462602477655224 62.632990427888444 0.5579963824305452 H 0.0 **** 0.06
31593 H 26.225642556207987 63.62385707944725 1.3670641336215397 H 0.0 **** 0.06
31594 H 26.03835433744476 61.855624931073635 1.2886647907556892 H 0.0 **** 0.06
31595 H 25.85861651601357 62.83604650397473 -0.18676234993476726 H 0.0 **** 0.06
31596 C 66.85453577947195 106.63751501836109 12.689934175266107 C 0.0 **** -0.24
31597 H 67.78054962007889 106.99165655164522 13.142260212257067 H 0.0 **** 0.06
31598 H 66.14821414957333 106.36647307874638 13.474993907108331 H 0.0 **** 0.06
31599 H 67.0625439357884 105.76566080745702 12.070021638842714 H 0.0 **** 0.06
31600 H 66.42574226077437 107.42813090489986 12.073044849855755 H 0.0 **** 0.06
31601 C 73.13973804017212 99.39674119922222 62.162787735837014 C 0.0 **** -0.24
31602 H 72.94018940145497 99.1428045569799 61.12252759003326 H 0.0 **** 0.06
31603 H 74.20848743842629 99.30988202421426 62.360421173657244 H 0.0 **** 0.06
31604 H 72.59272729351358 98.71432549023957 62.81432425882102 H 0.0 **** 0.06
31605 H 72.81692512571692 100.4196813242646 62.35511825771613 H 0.0 **** 0.06
31606 C 1.7117428766155314 26.399095215702175 2.808757388747253 C 0.0 **** -0.24
31607 H 1.801437355073162 27.473892846795167 2.968678369464129 H 0.0 **** 0.06
31608 H 0.6656307401780168 26.144190029048502 2.635591178137247 H 0.0 **** 0.06
31609 H 2.0741386880355606 25.87004078459256 3.690609675870178 H 0.0 **** 0.06
31610 H 2.3053980556193068 26.11115455272318 1.9413633519729245 H 0.0 **** 0.06
31611 C 47.32657572552222 31.6580859616029 34.88802220548695 C 0.0 **** -0.24
31612 H 46.68191626163252 30.79616237820477 34.71341496568979 H 0.0 **** 0.06
31613 H 48.329760767667494 31.442050669266635 34.51992809021402 H 0.0 **** 0.06
31614 H 47.368217777483494 31.869725702743473 35.95608599112742 H 0.0 **** 0.06
31615 H 46.92427274969509 32.523777723543006 34.36091417905888 H 0.0 **** 0.06
31616 C 44.89698869306466 2.0610510148198777 10.47471007253273 C 0.0 **** -0.24
31617 H 44.04303663451083 2.702598070898725 10.258696283734253 H 0.0 **** 0.06
31618 H 45.81895767482729 2.589827603752685 10.230367465929248 H 0.0 **** 0.06
31619 H 44.82873246288693 1.1525805466753 9.875145817992575 H 0.0 **** 0.06
31620 H 44.89669818908496 1.8003077120918487 11.532512284035988 H 0.0 **** 0.06
31621 C 26.085584563343104 109.32005118033167 18.55691501934652 C 0.0 **** -0.24
31622 H 25.614455648739124 108.9881662023357 19.481971572092164 H 0.0 **** 0.06
31623 H 27.12575807315085 109.58231049742915 18.752978545111432 H 0.0 **** 0.06
31624 H 25.556067558522443 110.19260339804865 18.17369559735073 H 0.0 **** 0.06
31625 H 26.044366563345307 108.51818169514935 17.82043753413373 H 0.0 **** 0.06
31626 C 101.1600273289136 49.182994219453605 32.42338878618505 C 0.0 **** -0.24
31627 H 100.24299678019801 48.67550687235618 32.72282542299955 H 0.0 **** 0.06
31628 H 101.07780369829996 49.49640953155375 31.382500288122834 H 0.0 **** 0.06
31629 H 102.00469166810973 48.50274807113664 32.5325128599942 H 0.0 **** 0.06
31630 H 101.31342305560639 50.057962156030754 33.05610646379305 H 0.0 **** 0.06
31631 C 35.33967977329337 52.844394773290844 27.446480236576946 C 0.0 **** -0.24
31632 H 35.45934684153656 52.19239906231667 28.31215347339284 H 0.0 **** 0.06
31633 H 36.22257792441246 53.47492099699639 27.342320461884412 H 0.0 **** 0.06
31634 H 34.45904433603664 53.47083717106102 27.583960481412305 H 0.0 **** 0.06
31635 H 35.21790959861664 52.23793817972893 26.54915190087756 H 0.0 **** 0.06
31636 C 102.67795181809164 58.36656645900383 100.85508695918415 C 0.0 **** -0.24
31637 H 102.39250010982349 59.31984223236668 100.40928162380834 H 0.0 **** 0.06
31638 H 103.21268286017755 58.54770692156585 101.78741499765319 H 0.0 **** 0.06
31639 H 103.32252870855591 57.821872047737216 100.16413584881438 H 0.0 **** 0.06
31640 H 101.78294145210486 57.77842553667758 101.0568378194875 H 0.0 **** 0.06
31641 C 90.07498627671353 92.55867205408907 52.539346159775974 C 0.0 **** -0.24
31642 H 90.61702771631997 92.38582502229802 53.46829429561954 H 0.0 **** 0.06
31643 H 89.81446647601592 93.61508465712947 52.46166303174927 H 0.0 **** 0.06
31644 H 89.1647847309163 91.95928041348085 52.53330277895988 H 0.0 **** 0.06
31645 H 90.70244138794615 92.27573747783006 51.695106407221004 H 0.0 **** 0.06
31646 C 13.785712772127397 68.95784371315273 39.62386510783654 C 0.0 **** -0.24
31647 H 14.401148418924947 69.69791293988737 39.112015272695714 H 0.0 **** 0.06
31648 H 14.306762683540143 68.60574375709865 40.51478900939412 H 0.0 **** 0.06
31649 H 13.597617558861927 68.11710383065173 38.95575254441519 H 0.0 **** 0.06
31650 H 12.837083085901384 69.41185096370572 39.91226053334367 H 0.0 **** 0.06
31651 C 47.1795404146398 17.385573205825352 56.721077312023105 C 0.0 **** -0.24
31652 H 47.940387693067635 17.94089333271876 56.17254316524076 H 0.0 **** 0.06
31653 H 47.447187325677135 16.328022149301432 56.741879842208554 H 0.0 **** 0.06
31654 H 46.21528638849429 17.507392386039584 56.22862026438199 H 0.0 **** 0.06
31655 H 47.118042208444024 17.764782058136234 57.741078460441706 H 0.0 **** 0.06
31656 C 7.055257074657206 23.278741058947134 109.25997029310187 C 0.0 **** -0.24
31657 H 8.01006220030473 22.901822002184673 109.62491942442114 H 0.0 **** 0.06
31658 H 6.817498368239754 22.803654052488127 108.30737177066464 H 0.0 **** 0.06
31659 H 7.120560563301893 24.35863605565345 109.12174564007417 H 0.0 **** 0.06
31660 H 6.273510566566557 23.052130293784245 109.98484316529772 H 0.0 **** 0.06
31661 C 71.74073283197401 15.534819988389359 76.8797623497232 C 0.0 **** -0.24
31662 H 71.55858098031234 15.19181070708828 77.89928683514424 H 0.0 **** 0.06
31663 H 72.62984836794328 15.04183291660587 76.48495086341751 H 0.0 **** 0.06
31664 H 71.89330418195522 16.613572829637405 76.88175395733498 H 0.0 **** 0.06
31665 H 70.88113390342181 15.289733765362087 76.25598502106158 H 0.0 **** 0.06
31666 C 5.2038547233186705 34.650145603437466 78.80780273968207 C 0.0 **** -0.24
31667 H 4.50018681213119 35.47681360874206 78.91205376665448 H 0.0 **** 0.06
31668 H 5.061049198812512 33.94711174594207 79.62914783600337 H 0.0 **** 0.06
31669 H 6.222951288429542 35.035275211435064 78.83169991917555 H 0.0 **** 0.06
31670 H 5.028384010140712 34.14301051038363 77.85942268785146 H 0.0 **** 0.06
31671 C 97.75332870701084 15.51677924866263 67.51235900912371 C 0.0 **** -0.24
31672 H 98.0159164770929 15.965889598252545 68.47104110981718 H 0.0 **** 0.06
31673 H 98.25421530155404 14.55393370121314 67.41303233102485 H 0.0 **** 0.06
31674 H 98.06878388198166 16.177215494638943 66.70364533298402 H 0.0 **** 0.06
31675 H 96.67374068841968 15.372222266111095 67.46370970859346 H 0.0 **** 0.06
31676 C 52.968180399552296 36.24504742668029 98.20391266914334 C 0.0 **** -0.24
31677 H 52.30820016640601 35.693086158735696 97.53521651505488 H 0.0 **** 0.06
31678 H 53.97634957263176 35.83481031043107 98.13829861539543 H 0.0 **** 0.06
31679 H 52.60529124579588 36.156436659920445 99.22745420683911 H 0.0 **** 0.06
31680 H 52.98356668508316 37.29590465106742 97.91344558238546 H 0.0 **** 0.06
31681 C 0.02117138976077193 59.787697381791304 36.878950990163354 C 0.0 **** -0.24
31682 H 0.24863164143491367 60.719853493528575 37.397188006754185 H 0.0 **** 0.06
31683 H 0.9381879050709143 59.3740484634497 36.45820277256515 H 0.0 **** 0.06
31684 H -0.6909226910151869 59.98418336052896 36.07662245515273 H 0.0 **** 0.06
31685 H -0.4105131317134161 59.07688445342251 37.582771371804874 H 0.0 **** 0.06
31686 C 47.985138559620964 101.1136808322102 30.66979951098193 C 0.0 **** -0.24
31687 H 48.57813819423808 101.04633232043659 29.758325273202075 H 0.0 **** 0.06
31688 H 48.447949349245164 100.50837181415812 31.450365963412168 H 0.0 **** 0.06
31689 H 46.97725167108683 100.74704377733912 30.475300099652912 H 0.0 **** 0.06
31690 H 47.93699357086558 102.15229792571762 30.996428208700706 H 0.0 **** 0.06
31691 C 45.00062676772281 29.441772466207112 59.21876049737094 C 0.0 **** -0.24
31692 H 44.45659317290708 30.31371655439625 59.581509272223 H 0.0 **** 0.06
31693 H 44.58655393826652 28.54058285951919 59.67261597101745 H 0.0 **** 0.06
31694 H 46.05256206770028 29.53293946392921 59.48812530854235 H 0.0 **** 0.06
31695 H 44.90661290662467 29.378796188493084 58.13475445373109 H 0.0 **** 0.06
31696 C 34.82914795749417 66.65529258190679 11.948446457709466 C 0.0 **** -0.24
31697 H 35.4577568170355 65.99370850276912 12.544477614093253 H 0.0 **** 0.06
31698 H 35.45817499822568 67.30540336698857 11.340338998869754 H 0.0 **** 0.06
31699 H 34.211435598965004 67.2631719156748 12.61041998393469 H 0.0 **** 0.06
31700 H 34.18709262353721 66.0590912199491 11.299192522648497 H 0.0 **** 0.06
31701 C 83.63330839895411 21.38610168513823 11.53549408812555 C 0.0 **** -0.24
31702 H 82.58002400257723 21.500192976743776 11.281224865077217 H 0.0 **** 0.06
31703 H 84.052793816898 22.360527038708014 11.791533329962334 H 0.0 **** 0.06
31704 H 84.16952499184646 20.972637385643353 10.681555126763698 H 0.0 **** 0.06
31705 H 83.73178571650578 20.71332092047308 12.387464742897713 H 0.0 **** 0.06
31706 C 8.502122251917502 16.751222704345384 29.5580911370526 C 0.0 **** -0.24
31707 H 7.903778014326017 17.276580754814685 28.813776136618685 H 0.0 **** 0.06
31708 H 8.569419243747356 15.695795497441935 29.291572231066425 H 0.0 **** 0.06
31709 H 8.032819708848393 16.849950374060672 30.537088950373516 H 0.0 **** 0.06
31710 H 9.50247204074837 17.182564191064305 29.58992723015183 H 0.0 **** 0.06
31711 C 50.215325730996085 31.04930081743504 49.94776180801898 C 0.0 **** -0.24
31712 H 51.282421810369044 31.25212851032998 49.860505958964 H 0.0 **** 0.06
31713 H 49.67932001834879 31.98577412345344 50.09949945990046 H 0.0 **** 0.06
31714 H 50.039518270146004 30.386789066733257 50.79507145132642 H 0.0 **** 0.06
31715 H 49.86051027503379 30.572026053091577 49.03322333314754 H 0.0 **** 0.06
31716 C 19.44845961951259 53.51164006892114 70.00752480480561 C 0.0 **** -0.24
31717 H 18.918056160866996 52.781429145972936 70.61826606147882 H 0.0 **** 0.06
31718 H 20.374742136017915 53.070957886282315 69.63698099402937 H 0.0 **** 0.06
31719 H 19.679950473350843 54.39033825858132 70.61040145965717 H 0.0 **** 0.06
31720 H 18.822405162310645 53.80430646157237 69.16466839586172 H 0.0 **** 0.06
31721 C 34.09136412374281 77.52283214356419 0.06049206704437893 C 0.0 **** -0.24
31722 H 34.803759566562945 77.61716113650141 -0.7598850245130677 H 0.0 **** 0.06
31723 H 33.362781279317744 78.3323627365944 0.0033951632569255707 H 0.0 **** 0.06
31724 H 34.622540053353944 77.5772934002386 1.0106898514225122 H 0.0 **** 0.06
31725 H 33.5765587922092 76.56470240347033 -0.014452120659086631 H 0.0 **** 0.06
31726 C 20.14884333939346 91.14370993130234 41.98167419751766 C 0.0 **** -0.24
31727 H 20.744898387889407 90.26715414437467 41.72711952794333 H 0.0 **** 0.06
31728 H 19.136576391176572 91.01680295526853 41.59849936517483 H 0.0 **** 0.06
31729 H 20.59885171655321 92.03046884953 41.53558922797474 H 0.0 **** 0.06
31730 H 20.116508908438895 91.25844849299523 43.06546906509189 H 0.0 **** 0.06
31731 C 12.642459567248011 109.34574975692153 53.485422957247806 C 0.0 **** -0.24
31732 H 12.024577767651891 108.45384414553382 53.3744442716353 H 0.0 **** 0.06
31733 H 12.581701613544084 109.70246154923001 54.513925233722944 H 0.0 **** 0.06
31734 H 12.284810412319928 110.12200035368772 52.80973976917437 H 0.0 **** 0.06
31735 H 13.677069907401432 109.1016968688547 53.24586434904353 H 0.0 **** 0.06
31736 C 48.28775054651828 27.857125367334078 53.871553161282534 C 0.0 **** -0.24
31737 H 48.44459706590942 26.778877444247513 53.91511195478553 H 0.0 **** 0.06
31738 H 47.32605875794508 28.06495460005212 53.402039940040574 H 0.0 **** 0.06
31739 H 49.08497185786791 28.316495171137603 53.28625806590724 H 0.0 **** 0.06
31740 H 48.29586737631473 28.266928629217546 54.880751880153575 H 0.0 **** 0.06
31741 C 59.06062129111443 5.430846428843893 103.92295952348721 C 0.0 **** -0.24
31742 H 60.10587349883609 5.509077318529052 104.22270859023061 H 0.0 **** 0.06
31743 H 58.80320956353856 4.382035954460463 103.7761790467762 H 0.0 **** 0.06
31744 H 58.90799234943141 5.977313600045164 102.9920316040547 H 0.0 **** 0.06
31745 H 58.42750094922877 5.855557263301648 104.70143754414221 H 0.0 **** 0.06
31746 C 95.91585604018121 78.18082038868349 81.8839608588628 C 0.0 **** -0.24
31747 H 94.95442001441603 78.20797171968752 82.39547355367378 H 0.0 **** 0.06
31748 H 95.92627971472223 78.92897194736699 81.09098838059283 H 0.0 **** 0.06
31749 H 96.07029994502335 77.19221416888976 81.45238407356632 H 0.0 **** 0.06
31750 H 96.71250294214087 78.39471729342597 82.59619645062055 H 0.0 **** 0.06
31751 C 15.441320443665123 53.202335049793874 84.85189746111206 C 0.0 **** -0.24
31752 H 15.59354042802476 53.80315077759468 83.9545550887218 H 0.0 **** 0.06
31753 H 14.537187404811824 53.53577037218554 85.36216416699443 H 0.0 **** 0.06
31754 H 16.298126360800975 53.32002384921492 85.51679880498983 H 0.0 **** 0.06
31755 H 15.337863514970788 52.154254436488884 84.57385907848249 H 0.0 **** 0.06
31756 C 46.09364126125524 17.92026051885398 9.354274026139194 C 0.0 **** -0.24
31757 H 45.52146872780128 18.358089257789402 10.171974643334067 H 0.0 **** 0.06
31758 H 46.46587848336475 18.713624654296268 8.705341378599002 H 0.0 **** 0.06
31759 H 45.45331908284206 17.25042738453334 8.780112181130363 H 0.0 **** 0.06
31760 H 46.93518466079536 17.358542045195406 9.761461779310082 H 0.0 **** 0.06
31761 C 106.94241912827871 63.00452564560392 13.511715145862382 C 0.0 **** -0.24
31762 H 107.88350979674894 62.93658775778661 12.963962793633243 H 0.0 **** 0.06
31763 H 107.09895416520196 63.5631538082107 14.434762877151343 H 0.0 **** 0.06
31764 H 106.58816570761778 62.0017425554812 13.748629211313414 H 0.0 **** 0.06
31765 H 106.20186961792963 63.51587102889452 12.89764186298666 H 0.0 **** 0.06
31766 C 73.32241282403244 90.37561692769239 102.7062948616175 C 0.0 **** -0.24
31767 H 73.72127107697013 91.17233687515795 102.07935699325617 H 0.0 **** 0.06
31768 H 73.7562710020892 90.44722629799985 103.7039701304713 H 0.0 **** 0.06
31769 H 73.57293746428292 89.40911461537608 102.26889753436427 H 0.0 **** 0.06
31770 H 72.23901408528474 90.47469430706288 102.7733513729467 H 0.0 **** 0.06
31771 C 58.75525578995149 72.9540738752396 73.67733588297591 C 0.0 **** -0.24
31772 H 58.67655360793472 72.80590576119468 74.75501950123896 H 0.0 **** 0.06
31773 H 57.78572768041289 72.77241357344141 73.21407733122624 H 0.0 **** 0.06
31774 H 59.48911249627912 72.26053279470582 73.26847800308593 H 0.0 **** 0.06
31775 H 59.06962618594167 73.97831420232535 73.4746396014715 H 0.0 **** 0.06
31776 C 23.42577224264241 72.74450717796255 83.81372105970166 C 0.0 **** -0.24
31777 H 23.931069478108043 72.77406206151936 84.77911991461004 H 0.0 **** 0.06
31778 H 23.3864757605088 71.7157652064327 83.45542442179541 H 0.0 **** 0.06
31779 H 23.97388393013901 73.35878041671013 83.09869746293285 H 0.0 **** 0.06
31780 H 22.412906140977128 73.13148654542178 83.92206738038124 H 0.0 **** 0.06
31781 C 56.51524795999177 49.068202153371864 83.49236453538555 C 0.0 **** -0.24
31782 H 57.437356910444294 49.38483723216382 83.0053881279949 H 0.0 **** 0.06
31783 H 56.153869121986475 48.151375554767 83.02304351252258 H 0.0 **** 0.06
31784 H 55.76216768369346 49.84970957938667 83.39025193680973 H 0.0 **** 0.06
31785 H 56.707070920431164 48.883761484030366 84.54937509459606 H 0.0 **** 0.06
31786 C 57.822057043071254 28.859801178872857 54.34114032652049 C 0.0 **** -0.24
31787 H 57.54908102176971 29.616235446485206 53.60633358368323 H 0.0 **** 0.06
31788 H 57.69580179822563 29.266331774028544 55.345056293128955 H 0.0 **** 0.06
31789 H 58.86337322402579 28.57078701263896 54.19493768577495 H 0.0 **** 0.06
31790 H 57.18217315865725 27.98655745162199 54.22014583976253 H 0.0 **** 0.06
31791 C 65.11555729299687 37.70577779716848 107.54052000136977 C 0.0 **** -0.24
31792 H 66.06091310464954 37.76537295661569 108.07983766160551 H 0.0 **** 0.06
31793 H 64.29821932019829 37.58289907392151 108.25235514887522 H 0.0 **** 0.06
31794 H 65.13704294593376 36.85316243337354 106.86179241309978 H 0.0 **** 0.06
31795 H 64.96466758824823 38.62186438679373 106.96830286158047 H 0.0 **** 0.06
31796 C 21.45576807484386 70.40494990044635 41.74978684861824 C 0.0 **** -0.24
31797 H 21.94786728887081 69.53425863093133 41.316131663535884 H 0.0 **** 0.06
31798 H 21.236899216229205 70.21405531492888 42.79975701263521 H 0.0 **** 0.06
31799 H 20.52645609737567 70.60104147955332 41.213990128189806 H 0.0 **** 0.06
31800 H 22.11214527993934 71.27200421608893 41.666723131558996 H 0.0 **** 0.06
31801 C 25.152128046226807 26.44708236300616 87.97534862141649 C 0.0 **** -0.24
31802 H 25.120248418763907 26.117013945768775 89.0131945685385 H 0.0 **** 0.06
31803 H 25.9183512036696 25.887378866609197 87.439740782018 H 0.0 **** 0.06
31804 H 25.385972859582523 27.511560272693117 87.93956924439102 H 0.0 **** 0.06
31805 H 24.181179376225714 26.273205229491367 87.50972297900195 H 0.0 **** 0.06
31806 C 105.9614125032232 107.2270051714215 77.50269389525117 C 0.0 **** -0.24
31807 H 107.01070198303854 107.03035587389866 77.72542564592156 H 0.0 **** 0.06
31808 H 105.34265020136425 106.87198551367317 78.32779635464549 H 0.0 **** 0.06
31809 H 105.68039679721385 106.70733955501066 76.5869780416752 H 0.0 **** 0.06
31810 H 105.81369879788068 108.29887095834792 77.37215229088784 H 0.0 **** 0.06
31811 C 69.8572331352413 9.783291753469712 53.55496505059347 C 0.0 **** -0.24
31812 H 69.25463987907926 10.205921489621002 54.359205205872975 H 0.0 **** 0.06
31813 H 70.25624190915732 10.589095826318186 52.9386010810875 H 0.0 **** 0.06
31814 H 69.23890319419888 9.128729939193164 52.94216038587582 H 0.0 **** 0.06
31815 H 70.68065339681158 9.210073463562699 53.98171161169936 H 0.0 **** 0.06
31816 C 38.518021875778174 37.60359303332611 4.187001793713989 C 0.0 **** -0.24
31817 H 38.418760793725994 36.885927820854604 5.000873756012268 H 0.0 **** 0.06
31818 H 39.25379901930566 38.36117102286793 4.457490858959574 H 0.0 **** 0.06
31819 H 37.55549316237844 38.08025389478113 4.004306480037741 H 0.0 **** 0.06
31820 H 38.84434077288404 37.086553766666846 3.2845057458129077 H 0.0 **** 0.06
31821 C 42.50190145094558 30.740223297097828 1.9477934015521043 C 0.0 **** -0.24
31822 H 41.77576665089478 30.4373065455394 1.1933343685929572 H 0.0 **** 0.06
31823 H 43.44218532017953 30.216216853089804 1.7770649278702706 H 0.0 **** 0.06
31824 H 42.120681632410026 30.490183549895846 2.938258113231825 H 0.0 **** 0.06
31825 H 42.66690259866252 31.815950563058266 1.8820801305065515 H 0.0 **** 0.06
31826 C 9.473221435236837 84.87143514819076 41.41692145741246 C 0.0 **** -0.24
31827 H 10.427211153313081 84.99643105050211 40.9040809311978 H 0.0 **** 0.06
31828 H 8.724267970915747 84.51634069290623 40.70845098471165 H 0.0 **** 0.06
31829 H 9.156546548761852 85.82744896099501 41.83273907354257 H 0.0 **** 0.06
31830 H 9.58700658082509 84.1439674498672 42.221423467688794 H 0.0 **** 0.06
31831 C 107.04765494136944 37.6288225738395 22.483824128895797 C 0.0 **** -0.24
31832 H 106.10671282950318 37.657989814650904 21.934317122663384 H 0.0 **** 0.06
31833 H 106.93707960323601 38.17338590541755 23.42207657579846 H 0.0 **** 0.06
31834 H 107.83232441283533 38.09280744739738 21.884924581233417 H 0.0 **** 0.06
31835 H 107.31418663154636 36.59342170639641 22.693241357547425 H 0.0 **** 0.06
31836 C 38.97457957511119 29.282918548791336 34.43587970240922 C 0.0 **** -0.24
31837 H 38.12525392669704 29.86335333971273 34.07724190916852 H 0.0 **** 0.06
31838 H 39.41006157608567 29.77589585005147 35.3057518779106 H 0.0 **** 0.06
31839 H 39.72331644893126 29.210047657705864 33.64664228913767 H 0.0 **** 0.06
31840 H 38.640302221452174 28.282833254373635 34.71324016033531 H 0.0 **** 0.06
31841 C 89.41180201530707 78.96341496346471 9.925532495799686 C 0.0 **** -0.24
31842 H 88.48726008220693 78.60328948144996 9.474040974842382 H 0.0 **** 0.06
31843 H 89.27691678337463 79.9949818884051 10.252793021661233 H 0.0 **** 0.06
31844 H 90.21684505877948 78.91725512627733 9.19239630120488 H 0.0 **** 0.06
31845 H 89.66438623023261 78.33978257282718 10.783101495603148 H 0.0 **** 0.06
31846 C 101.51346989448983 21.80253667634024 25.598276813831205 C 0.0 **** -0.24
31847 H 100.55278203362283 21.31646337959765 25.428699963915847 H 0.0 **** 0.06
31848 H 101.68517180534899 22.548411456169617 24.822352212660633 H 0.0 **** 0.06
31849 H 102.3085121198179 21.05627975133652 25.56699922614024 H 0.0 **** 0.06
31850 H 101.50823305638963 22.286781272228453 26.574391786238294 H 0.0 **** 0.06
31851 C 87.82261705912288 93.7481834671899 66.95836172070756 C 0.0 **** -0.24
31852 H 87.04063026289221 93.0331703388908 66.70423858203372 H 0.0 **** 0.06
31853 H 88.43231248396268 93.94818085726031 66.0763694634486 H 0.0 **** 0.06
31854 H 88.45106081137352 93.33543959764857 67.74772519518456 H 0.0 **** 0.06
31855 H 87.36830623159177 94.67626114553148 67.30353003422141 H 0.0 **** 0.06
31856 C 50.29108920868464 12.288836026301226 26.28628575751215 C 0.0 **** -0.24
31857 H 49.965540596746905 11.278913364819118 26.034075284032124 H 0.0 **** 0.06
31858 H 51.31551355476847 12.257982548692837 26.655911919282282 H 0.0 **** 0.06
31859 H 49.63790126969593 12.699364699830227 27.055635746355577 H 0.0 **** 0.06
31860 H 50.244504055045866 12.918013719753162 25.39634975883016 H 0.0 **** 0.06
31861 C 70.08459516382328 43.19011249161165 16.92388549078123 C 0.0 **** -0.24
31862 H 70.62306791169681 43.04679406621529 17.860487669471027 H 0.0 **** 0.06
31863 H 69.52121381139028 42.28763883774011 16.687243408250495 H 0.0 **** 0.06
31864 H 70.79514457766504 43.39563437191892 16.123032796333504 H 0.0 **** 0.06
31865 H 69.39745781734126 44.03111443084755 17.024303659505478 H 0.0 **** 0.06
31866 C 28.699743161374897 42.38052304869524 20.392588790168134 C 0.0 **** -0.24
31867 H 29.542680861264927 41.90597645202561 19.890158399856603 H 0.0 **** 0.06
31868 H 28.086529831714017 41.61729232262957 20.871297452459487 H 0.0 **** 0.06
31869 H 28.10054757526268 42.922416372221505 19.66109375224653 H 0.0 **** 0.06
31870 H 29.06981275293097 43.075351072400025 21.145927494962052 H 0.0 **** 0.06
31871 C 91.34123528290593 63.44485196092232 102.4568724422258 C 0.0 **** -0.24
31872 H 90.68992650084186 62.570586710056276 102.43367928588668 H 0.0 **** 0.06
31873 H 91.35863000991316 63.857669285431015 103.4660369796968 H 0.0 **** 0.06
31874 H 90.96536608242337 64.19615424687201 101.76288907571713 H 0.0 **** 0.06
31875 H 92.35101151219561 63.15293254413571 102.16574218094887 H 0.0 **** 0.06
31876 C 86.69878663151704 12.514590130652223 89.9327109580259 C 0.0 **** -0.24
31877 H 86.69705719436729 13.145996614995013 89.04431826156735 H 0.0 **** 0.06
31878 H 86.81433013055141 11.471398567522527 89.6358964125044 H 0.0 **** 0.06
31879 H 85.7587517268334 12.639114540507393 90.46885805245216 H 0.0 **** 0.06
31880 H 87.52738968517906 12.802210163154356 90.57998326282245 H 0.0 **** 0.06
31881 C 103.57379359599774 6.660959752015344 89.60106542646628 C 0.0 **** -0.24
31882 H 103.16854987664263 5.706652854618312 89.26253968631823 H 0.0 **** 0.06
31883 H 102.87382280376478 7.459433034211116 89.35441374462448 H 0.0 **** 0.06
31884 H 104.5276043543997 6.846242548122518 89.10758287395657 H 0.0 **** 0.06
31885 H 103.72275951973131 6.628314944790418 90.6806450828148 H 0.0 **** 0.06
31886 C 88.89923118821837 30.40703208448565 59.6139345458912 C 0.0 **** -0.24
31887 H 88.19553599362524 30.404468794680156 58.78148260264396 H 0.0 **** 0.06
31888 H 89.84163022114711 30.85014776500256 59.29131819380342 H 0.0 **** 0.06
31889 H 89.07283017338582 29.383580089570557 59.94421483065385 H 0.0 **** 0.06
31890 H 88.48616290540329 30.989872576733262 60.43662235904297 H 0.0 **** 0.06
31891 C 6.902145977423743 46.21522356804783 83.66613099605019 C 0.0 **** -0.24
31892 H 7.151054797413096 45.359905238986556 83.03685461953525 H 0.0 **** 0.06
31893 H 6.044639861647866 45.96842449016725 84.29205447662315 H 0.0 **** 0.06
31894 H 6.658365537772639 47.07060072592094 83.03559885941107 H 0.0 **** 0.06
31895 H 7.755251668683272 46.460963179144755 84.29815348860252 H 0.0 **** 0.06
31896 C 51.84804087236205 107.80935570718503 55.47768144451081 C 0.0 **** -0.24
31897 H 52.862407506008765 107.59271824740907 55.81154404618828 H 0.0 **** 0.06
31898 H 51.13472848395793 107.32132889493782 56.14257620873349 H 0.0 **** 0.06
31899 H 51.71208925989765 107.43737539339944 54.46273096275955 H 0.0 **** 0.06
31900 H 51.68226466733864 108.8871004421396 55.49445427825991 H 0.0 **** 0.06
31901 C 36.797044127026574 19.95984885171042 50.81331452994155 C 0.0 **** -0.24
31902 H 35.74063496440116 19.871571498051523 51.06435328579322 H 0.0 **** 0.06
31903 H 37.04288093326124 19.251260317003002 50.02240095456195 H 0.0 **** 0.06
31904 H 37.39979819809903 19.742474582167404 51.69508586517324 H 0.0 **** 0.06
31905 H 37.006230243793475 20.974080705385376 50.471777275594 H 0.0 **** 0.06
31906 C 16.482514550623947 80.90716581628358 69.33232255657163 C 0.0 **** -0.24
31907 H 15.635839020696565 80.5270319679017 68.7616453427411 H 0.0 **** 0.06
31908 H 17.29699082699517 81.1556359865965 68.65121041621313 H 0.0 **** 0.06
31909 H 16.817829215947867 80.144483278821 70.03613305861973 H 0.0 **** 0.06
31910 H 16.180437240124334 81.79940015527926 69.87962124335198 H 0.0 **** 0.06
31911 C 30.601632113532446 16.860222496070378 88.23070648446839 C 0.0 **** -0.24
31912 H 29.928673949434142 16.554445971402608 87.42944075263358 H 0.0 **** 0.06
31913 H 31.354694078019634 17.54030601202663 87.83198120855835 H 0.0 **** 0.06
31914 H 31.089677309131048 15.981407685212243 88.65041599652884 H 0.0 **** 0.06
31915 H 30.03099128405171 17.366262961837826 89.01032298844376 H 0.0 **** 0.06
31916 C 23.89545046634845 54.745177411375494 53.32707205007614 C 0.0 **** -0.24
31917 H 23.69113889041168 54.21755199985813 54.25970704256463 H 0.0 **** 0.06
31918 H 24.598517868650703 55.55674992739159 53.516545131595365 H 0.0 **** 0.06
31919 H 22.966517802634797 55.15343750514495 52.93091367892771 H 0.0 **** 0.06
31920 H 24.325930060411622 54.05222532828998 52.604340116325034 H 0.0 **** 0.06
31921 C 16.307966897434483 96.45855797312896 80.54438180275403 C 0.0 **** -0.24
31922 H 16.00931831542846 95.63749996325325 79.89146942191672 H 0.0 **** 0.06
31923 H 15.467007168380235 96.74152927332182 81.17789165683209 H 0.0 **** 0.06
31924 H 16.611105032587176 97.31267392838683 79.93825972563144 H 0.0 **** 0.06
31925 H 17.143156281155285 96.14048847120395 81.1681182853037 H 0.0 **** 0.06
31926 C 30.830576588304297 43.16459571017555 8.218041704027682 C 0.0 **** -0.24
31927 H 30.074076881189605 42.3907012750868 8.35159459778003 H 0.0 **** 0.06
31928 H 31.777720566853006 42.82163896866027 8.634775074982192 H 0.0 **** 0.06
31929 H 30.5149723154233 44.07227288540085 8.732953197589849 H 0.0 **** 0.06
31930 H 30.9540215695759 43.373342133912246 7.1553978337212545 H 0.0 **** 0.06
31931 C 58.785736772951566 13.381439502730213 40.667646950150946 C 0.0 **** -0.24
31932 H 59.521290505513036 12.85793320708489 40.055818000525456 H 0.0 **** 0.06
31933 H 58.03437601416704 13.83599745605358 40.02089052207971 H 0.0 **** 0.06
31934 H 59.283500681391104 14.15688956181235 41.24875706248194 H 0.0 **** 0.06
31935 H 58.304523602894335 12.672799507750149 41.342143060877056 H 0.0 **** 0.06
31936 C 9.609607196611677 88.65548496632671 97.38704796816299 C 0.0 **** -0.24
31937 H 9.549648044523451 87.5870196459923 97.17973782479397 H 0.0 **** 0.06
31938 H 10.61867260654725 88.90433454484274 97.71899032649694 H 0.0 **** 0.06
31939 H 8.89602836319844 88.9143052852352 98.16940212758483 H 0.0 **** 0.06
31940 H 9.376509689311916 89.21532505887454 96.48210692985397 H 0.0 **** 0.06
31941 C 68.73666742840118 40.612959723327364 59.32758794953793 C 0.0 **** -0.24
31942 H 68.84355472329875 40.990767711248736 58.31040900847319 H 0.0 **** 0.06
31943 H 67.6821572472503 40.43301546058336 59.53801869729739 H 0.0 **** 0.06
31944 H 69.12823227683208 41.34840390395459 60.030684373026986 H 0.0 **** 0.06
31945 H 69.29260890585152 39.68177569055075 59.42816136249991 H 0.0 **** 0.06
31946 C 80.21514639305019 78.02780511337231 94.63640586415681 C 0.0 **** -0.24
31947 H 81.22855606006237 78.01637244783267 95.03728098072713 H 0.0 **** 0.06
31948 H 79.71533739487239 78.94805703822453 94.9390295571061 H 0.0 **** 0.06
31949 H 79.6631242861331 77.17069400298064 95.0212653692264 H 0.0 **** 0.06
31950 H 80.25455599417069 77.97600963713194 93.54817387465164 H 0.0 **** 0.06
31951 C 79.20811150432462 108.37893797458409 16.26373675888854 C 0.0 **** -0.24
31952 H 80.07906149222305 108.80198665079502 16.764455916720408 H 0.0 **** 0.06
31953 H 78.38968837337481 108.28132225271268 16.977130402021402 H 0.0 **** 0.06
31954 H 79.46139435582228 107.39656959713771 15.863674316770158 H 0.0 **** 0.06
31955 H 78.90399054589727 109.03595004974993 15.44861754600808 H 0.0 **** 0.06
31956 C 46.254086289067914 7.731028462550853 34.007126095051945 C 0.0 **** -0.24
31957 H 46.58466055302037 7.080655705836705 34.81762083197242 H 0.0 **** 0.06
31958 H 45.17838865062777 7.621267869994625 33.86811187049108 H 0.0 **** 0.06
31959 H 46.770601009972665 7.456153981809223 33.087290070662476 H 0.0 **** 0.06
31960 H 46.48428071444505 8.767120420113486 34.25700157317817 H 0.0 **** 0.06
31961 C 49.89904635809597 80.15907103799049 66.70292895206951 C 0.0 **** -0.24
31962 H 50.426249585663896 79.22749742053895 66.49734422346019 H 0.0 **** 0.06
31963 H 49.56935523682694 80.60425521728911 65.7641278286202 H 0.0 **** 0.06
31964 H 50.56786395610044 80.8486374255861 67.2184820290504 H 0.0 **** 0.06
31965 H 49.03318795877692 79.95523666136746 67.33234969941857 H 0.0 **** 0.06
31966 C 2.895329300816286 16.704000187393163 21.228989386956428 C 0.0 **** -0.24
31967 H 1.8699712952900143 16.748476234932355 21.597693377537503 H 0.0 **** 0.06
31968 H 2.887568399831821 16.56519066440896 20.148024816787903 H 0.0 **** 0.06
31969 H 3.4137011159961617 15.868298781806232 21.699826501534762 H 0.0 **** 0.06
31970 H 3.4087015927965325 17.633526179551893 21.47303037204344 H 0.0 **** 0.06
31971 C 84.46253203770104 63.279950106965714 3.872087853230921 C 0.0 **** -0.24
31972 H 85.14877172664983 64.08805420874238 4.127502489951958 H 0.0 **** 0.06
31973 H 83.60597915054942 63.30424324469841 4.545699553615707 H 0.0 **** 0.06
31974 H 84.97570351296525 62.32392888063802 3.9692481134190576 H 0.0 **** 0.06
31975 H 84.11982185838374 63.406353760855225 2.8447823410483313 H 0.0 **** 0.06
31976 C 50.881757726230454 31.010322352853855 95.5244485300509 C 0.0 **** -0.24
31977 H 50.35248181553579 31.370930684777434 96.4068245304506 H 0.0 **** 0.06
31978 H 51.53883756502946 30.18746955110401 95.80579365353893 H 0.0 **** 0.06
31979 H 51.47491727930191 31.820882758724906 95.10116340096621 H 0.0 **** 0.06
31980 H 50.15943499605668 30.663464697491115 94.7850255066198 H 0.0 **** 0.06
31981 C 65.07902554066982 76.0913855842613 20.096266063728933 C 0.0 **** -0.24
31982 H 64.85695491301408 76.41974288142363 19.08126221323215 H 0.0 **** 0.06
31983 H 65.90309207587575 76.68212965525741 20.496923703699508 H 0.0 **** 0.06
31984 H 65.35878410297266 75.0377618638575 20.084351539657746 H 0.0 **** 0.06
31985 H 64.19727107081684 76.22590793650677 20.722526798326328 H 0.0 **** 0.06
31986 C 101.19591641769685 73.47321078405548 31.825857870903008 C 0.0 **** -0.24
31987 H 102.05238990211153 72.93122482415129 31.425401756786357 H 0.0 **** 0.06
31988 H 101.03200421493895 74.37740517053535 31.237495602538957 H 0.0 **** 0.06
31989 H 101.39095018729775 73.74456268433471 32.862865900806526 H 0.0 **** 0.06
31990 H 100.30989521130365 72.84089490953019 31.775027219164713 H 0.0 **** 0.06
31991 C 33.572563839040015 70.20052825204587 69.81524031556555 C 0.0 **** -0.24
31992 H 32.98948582281247 69.81322689187249 70.65128365046475 H 0.0 **** 0.06
31993 H 33.76893423278784 69.39579604579558 69.10558507526329 H 0.0 **** 0.06
31994 H 34.51818647695711 70.59700106974509 70.18519284099449 H 0.0 **** 0.06
31995 H 33.013300659772426 70.99453283717688 69.31957592601131 H 0.0 **** 0.06
31996 C 22.947219245079907 99.05362776419014 85.91219359293302 C 0.0 **** -0.24
31997 H 23.92853691121286 99.07190107056982 85.43927563044969 H 0.0 **** 0.06
31998 H 22.886691330911333 98.2019234597285 86.59020827905505 H 0.0 **** 0.06
31999 H 22.176958705839297 98.96278741477101 85.14583368889907 H 0.0 **** 0.06
32000 H 22.79526195291615 99.97588884086815 86.4717480156435 H 0.0 **** 0.06
32001 C 12.269636241044964 62.16621336503562 16.27228263307964 C 0.0 **** -0.24
32002 H 11.958532652410298 61.12315988882045 16.32091065805494 H 0.0 **** 0.06
32003 H 11.597100235043257 62.77459853582624 16.876872187653248 H 0.0 **** 0.06
32004 H 12.236702973331802 62.5069152663707 15.236866579641827 H 0.0 **** 0.06
32005 H 13.2867829695806 62.260593574663005 16.652900096718497 H 0.0 **** 0.06
32006 C 110.03159238697924 7.93181045044247 58.697188996812656 C 0.0 **** -0.24
32007 H 110.76335548804326 8.328933117378213 57.99476889000391 H 0.0 **** 0.06
32008 H 109.04313702614101 8.318823225916987 58.448850794448504 H 0.0 **** 0.06
32009 H 110.29726335323406 8.23533961581225 59.70958945773873 H 0.0 **** 0.06
32010 H 110.02208225139032 6.843202893527604 58.633864991575706 H 0.0 **** 0.06
32011 C 39.42255429666551 102.69687390057058 14.360730597448253 C 0.0 **** -0.24
32012 H 39.168305221677855 101.8135627241482 14.944938102181709 H 0.0 **** 0.06
32013 H 38.81112078851061 103.53790701781301 14.688877105984318 H 0.0 **** 0.06
32014 H 39.23372262792782 102.50046911409032 13.304522484315271 H 0.0 **** 0.06
32015 H 40.4755585662912 102.93571640064658 14.50375126171653 H 0.0 **** 0.06
32016 C 3.7861584328485947 57.988174495279424 85.60824434675959 C 0.0 **** -0.24
32017 H 2.9928059657310087 58.25022066325286 86.30916122044164 H 0.0 **** 0.06
32018 H 4.731986157371523 57.90573930184274 86.14373672575351 H 0.0 **** 0.06
32019 H 3.8662171431652723 58.761837771437996 84.84515298388754 H 0.0 **** 0.06
32020 H 3.55155083947551 57.03406889802022 85.13483058757393 H 0.0 **** 0.06
32021 C 35.90108789447336 56.637313128112055 14.1028956977093 C 0.0 **** -0.24
32022 H 35.889677210192616 55.866382311468215 14.873205499611316 H 0.0 **** 0.06
32023 H 34.87914592042094 56.85816191096819 13.794288888966378 H 0.0 **** 0.06
32024 H 36.47180842999535 56.283652998551815 13.244039870821297 H 0.0 **** 0.06
32025 H 36.36443713750016 57.54093692063759 14.49936167102868 H 0.0 **** 0.06
32026 C 78.47944374484473 43.77225239916723 51.1543342978905 C 0.0 **** -0.24
32027 H 79.42082912432201 44.13364112770566 51.5684689338421 H 0.0 **** 0.06
32028 H 78.47362296707811 42.68159368705369 51.166396848567786 H 0.0 **** 0.06
32029 H 78.37436949435974 44.125716764114884 50.12879685031436 H 0.0 **** 0.06
32030 H 77.65133691152022 44.14718087791968 51.755271405903216 H 0.0 **** 0.06
32031 C 4.340060099676407 71.05601213393456 52.09685388202706 C 0.0 **** -0.24
32032 H 5.191516712589163 71.39472777081741 51.50745330939037 H 0.0 **** 0.06
32033 H 4.165491420685356 71.7525287878604 52.91717094291414 H 0.0 **** 0.06
32034 H 4.548673198521669 70.06448544060987 52.49980446089751 H 0.0 **** 0.06
32035 H 3.454331051301182 71.01092726336401 51.46400944165492 H 0.0 **** 0.06
32036 C 27.7617373460173 0.33458958205710587 76.92668787446155 C 0.0 **** -0.24
32037 H 28.285226253666337 0.38835426130225414 77.8796187738827 H 0.0 **** 0.06
32038 H 27.905281822810053 -0.653263035283203 76.48759906862347 H 0.0 **** 0.06
32039 H 28.158165085606868 1.0931297994818294 76.25134607664808 H 0.0 **** 0.06
32040 H 26.697854437128797 0.5111527222184975 77.08539625762683 H 0.0 **** 0.06
32041 C 48.52253142167507 18.40043397810922 49.54978388733821 C 0.0 **** -0.24
32042 H 48.274386283130525 18.332323611308254 50.609439845358615 H 0.0 **** 0.06
32043 H 48.64412321739354 19.448461335718832 49.27289598459583 H 0.0 **** 0.06
32044 H 47.71887103924172 17.959882550684256 48.95986088019483 H 0.0 **** 0.06
32045 H 49.450962097049796 17.86341765426846 49.358756092628376 H 0.0 **** 0.06
32046 C 36.23431194856238 110.35847021265808 46.66132776606668 C 0.0 **** -0.24
32047 H 36.09546259330162 111.26311066523324 46.0692743530832 H 0.0 **** 0.06
32048 H 35.702461559892015 110.45836727497313 47.60731320686635 H 0.0 **** 0.06
32049 H 37.29692870485391 110.21087641557573 46.85447910387365 H 0.0 **** 0.06
32050 H 35.84343233393511 109.50137544583643 46.11203051431204 H 0.0 **** 0.06
32051 C 54.884854720105096 4.572745470626614 94.00176493996672 C 0.0 **** -0.24
32052 H 55.95801889251801 4.7543390450288285 93.96528126835956 H 0.0 **** 0.06
32053 H 54.474133548071066 4.6128990452004786 92.99277457613252 H 0.0 **** 0.06
32054 H 54.40745715128244 5.333552564313848 94.619895100509 H 0.0 **** 0.06
32055 H 54.69788463200467 3.5873996404426833 94.43069104120396 H 0.0 **** 0.06
32056 C 36.422962919773 110.43178309106862 26.959906534202048 C 0.0 **** -0.24
32057 H 36.3048820341679 110.12340170877428 25.921812372837366 H 0.0 **** 0.06
32058 H 35.623665896423205 109.9975915982619 27.56167294995379 H 0.0 **** 0.06
32059 H 36.37543130738216 111.51903019528497 27.023649991764728 H 0.0 **** 0.06
32060 H 37.38758902403757 110.08891823462669 27.334646337853485 H 0.0 **** 0.06
32061 C 20.001990446849277 26.966048228254536 56.76695202078196 C 0.0 **** -0.24
32062 H 19.868333775715485 27.208158966975446 57.82059662080093 H 0.0 **** 0.06
32063 H 20.446017234947945 25.97499255262494 56.67566363142012 H 0.0 **** 0.06
32064 H 20.658971221932404 27.703093704970485 56.30510685069234 H 0.0 **** 0.06
32065 H 19.033667219827294 26.97839729532211 56.2655176607081 H 0.0 **** 0.06
32066 C 38.114704815394305 58.32234312912402 53.561202514906405 C 0.0 **** -0.24
32067 H 37.98204761070383 58.78279929732993 52.58233383123864 H 0.0 **** 0.06
32068 H 37.29725231718078 58.62326802448723 54.217318671645344 H 0.0 **** 0.06
32069 H 39.0632572932729 58.64714969450935 53.98936795888655 H 0.0 **** 0.06
32070 H 38.116286332098355 57.237562336923766 53.45593214895248 H 0.0 **** 0.06
32071 C 57.307515038185684 1.2531664610872326 105.74579021958215 C 0.0 **** -0.24
32072 H 57.67850021950013 0.5454135937735174 106.48667386305762 H 0.0 **** 0.06
32073 H 56.22190800797921 1.3180480068446911 105.81706769994716 H 0.0 **** 0.06
32074 H 57.58648460230776 0.9134711835660312 104.74804683424355 H 0.0 **** 0.06
32075 H 57.74385927796165 2.2351285690588725 105.93029735814437 H 0.0 **** 0.06
32076 C 88.76987776842867 97.45238309895615 87.40956512829985 C 0.0 **** -0.24
32077 H 89.48300761656651 98.13353220280737 87.87427521907324 H 0.0 **** 0.06
32078 H 88.3760793185061 97.90501109779333 86.49991499082293 H 0.0 **** 0.06
32079 H 87.95196026994589 97.25519574788126 88.10191821878459 H 0.0 **** 0.06
32080 H 89.27046289865999 96.51573420132792 87.1621279585137 H 0.0 **** 0.06
32081 C 21.491313981397443 9.846549852403285 95.36035407213728 C 0.0 **** -0.24
32082 H 22.49268619028925 9.419335381452065 95.31104681000784 H 0.0 **** 0.06
32083 H 20.87956021729768 9.2597097174618 96.04601926230549 H 0.0 **** 0.06
32084 H 21.04119580629054 9.83225341037664 94.36759378581132 H 0.0 **** 0.06
32085 H 21.552702878354722 10.874458939217408 95.71663767293603 H 0.0 **** 0.06
32086 C 26.16042438425862 66.289360602624 66.00203374166216 C 0.0 **** -0.24
32087 H 26.15124400349967 65.21265013128922 65.83145521830994 H 0.0 **** 0.06
32088 H 25.69368825358481 66.79443444055049 65.15671279400573 H 0.0 **** 0.06
32089 H 27.190713424548534 66.63032037791523 66.10708463969002 H 0.0 **** 0.06
32090 H 25.60726652944885 66.51748667343404 66.91301815754036 H 0.0 **** 0.06
32091 C 2.637379807577929 36.01732608108941 67.41168151315267 C 0.0 **** -0.24
32092 H 2.601310835746176 36.54322029851045 66.45760602646135 H 0.0 **** 0.06
32093 H 1.6223080794608222 35.83715348778105 67.76522350671937 H 0.0 **** 0.06
32094 H 3.1739542471146933 36.62411403466385 68.1411484337263 H 0.0 **** 0.06
32095 H 3.151831665407258 35.06510592518427 67.28179771874318 H 0.0 **** 0.06
32096 C 8.248016846137332 59.84448780364251 85.312108033431 C 0.0 **** -0.24
32097 H 7.6185813541921 59.23736339560709 85.96231616867806 H 0.0 **** 0.06
32098 H 7.996737135924009 60.896757246227736 85.44414305268725 H 0.0 **** 0.06
32099 H 8.08067595532242 59.55699649244171 84.2738756278141 H 0.0 **** 0.06
32100 H 9.295150915712824 59.68537276619537 85.5682180520601 H 0.0 **** 0.06
32101 C 84.82913057825544 33.501639081649955 25.95075769960542 C 0.0 **** -0.24
32102 H 83.85638235732924 33.68926742062186 26.406921385786717 H 0.0 **** 0.06
32103 H 85.22841662308011 32.55763742607411 26.323339670425156 H 0.0 **** 0.06
32104 H 85.51211657521998 34.311442120463084 26.20670863422032 H 0.0 **** 0.06
32105 H 84.71837861346202 33.44887761376239 24.867806201120146 H 0.0 **** 0.06
32106 C 70.90719873297438 3.300792715146329 29.799643595111384 C 0.0 **** -0.24
32107 H 71.23001390651244 3.7284180589002887 30.748700308258563 H 0.0 **** 0.06
32108 H 71.36218887563585 3.853917371277717 28.978398941179158 H 0.0 **** 0.06
32109 H 69.82158138482293 3.3637559133548507 29.72406351937807 H 0.0 **** 0.06
32110 H 71.21502080252085 2.256164258889669 29.7484897128764 H 0.0 **** 0.06
32111 C 39.6288939376783 77.12046526931884 4.153403167680608 C 0.0 **** -0.24
32112 H 38.685294621785346 77.34829259111653 3.657462867570217 H 0.0 **** 0.06
32113 H 40.43774574494256 77.14576986145278 3.423906005070748 H 0.0 **** 0.06
32114 H 39.57316265894167 76.12868358942727 4.60062211559142 H 0.0 **** 0.06
32115 H 39.8166755089309 77.86039701290267 4.931908058309659 H 0.0 **** 0.06
32116 C 88.74969988239273 71.88582487850505 24.29851648581453 C 0.0 **** -0.24
32117 H 88.47213004297343 71.5775933405281 25.307051110846828 H 0.0 **** 0.06
32118 H 89.43746872234411 72.7303658534986 24.35380082297337 H 0.0 **** 0.06
32119 H 87.85529071844675 72.18061165658708 23.75010267245807 H 0.0 **** 0.06
32120 H 89.23337998512665 71.0548025503399 23.785501708930127 H 0.0 **** 0.06
32121 C 97.58229848785683 36.37977096333527 74.78883021267325 C 0.0 **** -0.24
32122 H 96.8169751891632 37.112411549902895 74.52944279066338 H 0.0 **** 0.06
32123 H 98.28011149480102 36.82152126857454 75.50041255063428 H 0.0 **** 0.06
32124 H 98.12043173080312 36.08237969891733 73.88878311333207 H 0.0 **** 0.06
32125 H 97.11091684341608 35.504944343869774 75.2358441104368 H 0.0 **** 0.06
32126 C 39.65823094459513 22.945910863800236 23.21844943741367 C 0.0 **** -0.24
32127 H 39.27115238846135 22.52409600114001 24.145828070458666 H 0.0 **** 0.06
32128 H 40.3907230129959 22.263751511895947 22.787541450441886 H 0.0 **** 0.06
32129 H 40.13281714151622 23.90536147939696 23.42626722565001 H 0.0 **** 0.06
32130 H 38.838543522716265 23.090928733003437 22.514972313062152 H 0.0 **** 0.06
32131 C 109.4365848614692 50.155588261365324 2.373120067918415 C 0.0 **** -0.24
32132 H 109.5777789260054 51.17067240803101 2.0028105880990363 H 0.0 **** 0.06
32133 H 110.40701015189781 49.67458854170701 2.494934468669225 H 0.0 **** 0.06
32134 H 108.83613376320845 49.589271466440096 1.6599100078499047 H 0.0 **** 0.06
32135 H 108.92305750139194 50.18839517737018 3.334501436402908 H 0.0 **** 0.06
32136 C 47.064301458741085 66.08522693264354 46.20915892873552 C 0.0 **** -0.24
32137 H 47.73691535039467 66.90460509890613 45.95736603904538 H 0.0 **** 0.06
32138 H 46.549060290846285 65.74838745171343 45.30868321020853 H 0.0 **** 0.06
32139 H 46.33232323639314 66.42868697016127 46.94010407932069 H 0.0 **** 0.06
32140 H 47.63841708086176 65.25998615815553 46.63005158989188 H 0.0 **** 0.06
32141 C 36.697967853469635 30.427372317009834 4.29759450366879 C 0.0 **** -0.24
32142 H 36.774750029003314 31.434055667158546 3.889368152360248 H 0.0 **** 0.06
32143 H 37.6759376570015 30.105444010273857 4.657670942352013 H 0.0 **** 0.06
32144 H 36.354397054128356 29.74487464816029 3.519714171077567 H 0.0 **** 0.06
32145 H 35.98706442959079 30.422912704561284 5.123895398796833 H 0.0 **** 0.06
32146 C 86.40346890833632 58.433764859184976 68.37114155348304 C 0.0 **** -0.24
32147 H 86.54945101880278 59.40491032721201 67.89923649292562 H 0.0 **** 0.06
32148 H 85.4526449958775 58.42938030228726 68.90622707051836 H 0.0 **** 0.06
32149 H 87.21597225527879 58.24484158868944 69.07253661055614 H 0.0 **** 0.06
32150 H 86.3941497258013 57.65575863907645 67.60703929401878 H 0.0 **** 0.06
32151 C 44.937523593951035 3.963971185336078 97.2379808337129 C 0.0 **** -0.24
32152 H 44.977246842076646 4.580176461205795 96.3395851144577 H 0.0 **** 0.06
32153 H 45.94746332700178 3.8066900694291377 97.61597301932996 H 0.0 **** 0.06
32154 H 44.48482744854836 3.001296559687276 96.99796092549222 H 0.0 **** 0.06
32155 H 44.338157231063825 4.467930925331402 97.99612413808755 H 0.0 **** 0.06
32156 C 71.98020987803072 77.33738027292068 90.84325110865635 C 0.0 **** -0.24
32157 H 72.05979516370704 77.94279879566648 89.94035392419397 H 0.0 **** 0.06
32158 H 71.34791070695665 76.47156993079378 90.64508963047786 H 0.0 **** 0.06
32159 H 71.54090573605717 77.93345026803513 91.64320996356437 H 0.0 **** 0.06
32160 H 72.97332525142961 77.00179564468658 91.14346368411037 H 0.0 **** 0.06
32161 C 53.38037268774397 58.092932621867064 45.848595747690446 C 0.0 **** -0.24
32162 H 52.866938088711805 57.53309999963751 46.63096914405283 H 0.0 **** 0.06
32163 H 54.449583820570155 58.114290317362325 46.05937082609388 H 0.0 **** 0.06
32164 H 52.99533617837787 59.11202117344121 45.81928500348666 H 0.0 **** 0.06
32165 H 53.20895271593446 57.612235065636966 44.885995242910276 H 0.0 **** 0.06
32166 C 20.320939796556292 106.10986157637214 68.35651857600973 C 0.0 **** -0.24
32167 H 20.026560905220016 106.84351450291537 67.60505449904203 H 0.0 **** 0.06
32168 H 19.76575334619455 105.18558843404186 68.19767312439664 H 0.0 **** 0.06
32169 H 20.10168276796032 106.50009665063268 69.3498909260922 H 0.0 **** 0.06
32170 H 21.389017480314923 105.91173244396006 68.27095805305797 H 0.0 **** 0.06
32171 C 4.987921925516574 94.5451448512968 8.631872707627025 C 0.0 **** -0.24
32172 H 4.614285298703123 94.20871174086426 7.665333464168867 H 0.0 **** 0.06
32173 H 5.2560418344664015 95.60058134693301 8.570673654045606 H 0.0 **** 0.06
32174 H 5.866976294685756 93.96263714525391 8.905079313330305 H 0.0 **** 0.06
32175 H 4.213213446497079 94.4104815103936 9.386925887564502 H 0.0 **** 0.06
32176 C 37.077823124719714 42.167985254335925 33.72000125507452 C 0.0 **** -0.24
32177 H 37.07081061691244 42.478034594869655 34.76430240641315 H 0.0 **** 0.06
32178 H 38.08735444729851 42.26361729965075 33.31939822641081 H 0.0 **** 0.06
32179 H 36.39837665415277 42.80075370505088 33.147884679141015 H 0.0 **** 0.06
32180 H 36.75475078051514 41.129535417772374 33.648419708333336 H 0.0 **** 0.06
32181 C 37.320415555168736 38.893460688773416 86.95695044097822 C 0.0 **** -0.24
32182 H 36.646206776484746 39.00772278762656 87.80518235350651 H 0.0 **** 0.06
32183 H 37.252095322831806 37.87583066356507 86.57233217202558 H 0.0 **** 0.06
32184 H 38.34339799759809 39.093199780335 87.27649068772 H 0.0 **** 0.06
32185 H 37.04147338682856 39.59790827161794 86.17358233954964 H 0.0 **** 0.06
32186 C 41.11911174043448 106.67046856016371 12.087115331484881 C 0.0 **** -0.24
32187 H 40.81645450065233 107.66506429465025 12.413019609299454 H 0.0 **** 0.06
32188 H 40.24199597246093 106.02603775735709 12.023510062688672 H 0.0 **** 0.06
32189 H 41.82600380703275 106.25225009244969 12.804738300599126 H 0.0 **** 0.06
32190 H 41.593628491015096 106.73730661216935 11.108113667154925 H 0.0 **** 0.06
32191 C 57.398649712873016 62.60808039470652 28.308300294234016 C 0.0 **** -0.24
32192 H 56.73440226165915 63.30938953164673 27.804155964255294 H 0.0 **** 0.06
32193 H 58.29378151238219 62.4561065925256 27.70438655426714 H 0.0 **** 0.06
32194 H 56.8853743422572 61.65582244814988 28.44340747000129 H 0.0 **** 0.06
32195 H 57.68038618114575 63.009903895927835 29.281854193798033 H 0.0 **** 0.06
32196 C 55.242403749638584 52.350256157047795 77.68090039767993 C 0.0 **** -0.24
32197 H 54.87237137742784 52.40627262525345 76.65722714714343 H 0.0 **** 0.06
32198 H 54.480762135976875 52.73123827941174 78.36320717733847 H 0.0 **** 0.06
32199 H 56.146965537453525 52.95115818568814 77.77306568976216 H 0.0 **** 0.06
32200 H 55.46739833901742 51.31333589046068 77.92935663091832 H 0.0 **** 0.06
32201 C 51.11829976236991 69.58106631103918 12.385819210255278 C 0.0 **** -0.24
32202 H 51.721050314460356 70.44041053638998 12.679887253143079 H 0.0 **** 0.06
32203 H 51.01177144492773 69.56607421682588 11.300884781687301 H 0.0 **** 0.06
32204 H 50.13324887598187 69.6532082384194 12.848114659996966 H 0.0 **** 0.06
32205 H 51.60834550322849 68.66435636844379 12.716253567651194 H 0.0 **** 0.06
32206 C 49.93576609053551 32.28569806359218 5.843518104958221 C 0.0 **** -0.24
32207 H 49.631256017655225 33.11299230383748 5.202551193774454 H 0.0 **** 0.06
32208 H 51.01934451477123 32.29871386520558 5.96400526500166 H 0.0 **** 0.06
32209 H 49.63157250697743 31.342317973789335 5.388469673044398 H 0.0 **** 0.06
32210 H 49.46089132273803 32.38876811153624 6.819046288012245 H 0.0 **** 0.06
32211 C 104.86075262857551 53.73230113180972 86.10839765477833 C 0.0 **** -0.24
32212 H 105.87588344721475 53.44155575607218 85.83861391833692 H 0.0 **** 0.06
32213 H 104.66591532910094 54.74349365604172 85.75018839777252 H 0.0 **** 0.06
32214 H 104.75161265822788 53.70336362447546 87.19257698676695 H 0.0 **** 0.06
32215 H 104.151750788575 53.04103696643196 85.6533559526308 H 0.0 **** 0.06
32216 C 106.69981774520815 46.641395252227085 77.53265168570547 C 0.0 **** -0.24
32217 H 106.02353967884075 47.483079176743615 77.67606644059732 H 0.0 **** 0.06
32218 H 107.12158614639254 46.34683836548248 78.49416114526404 H 0.0 **** 0.06
32219 H 107.50400815954654 46.93277045860083 76.85670048927054 H 0.0 **** 0.06
32220 H 106.15106127033903 45.80327314652794 77.10371419349319 H 0.0 **** 0.06
32221 C 85.32808419367439 88.65064028509613 2.1356944029926694 C 0.0 **** -0.24
32222 H 85.23353014862812 88.2553757475292 3.1470945264861143 H 0.0 **** 0.06
32223 H 86.20605789615252 89.2952486322194 2.0778319024819325 H 0.0 **** 0.06
32224 H 84.43713961883392 89.22719473247935 1.8865489153628232 H 0.0 **** 0.06
32225 H 85.43581886714418 87.82595403760821 1.432000218955693 H 0.0 **** 0.06
32226 C 84.44112646703275 82.21440028514388 55.49686769187031 C 0.0 **** -0.24
32227 H 84.2743278820081 81.40861742913904 54.78176701951624 H 0.0 **** 0.06
32228 H 84.57925566166688 83.15354343720838 54.95995125520565 H 0.0 **** 0.06
32229 H 85.3326341361024 81.9975369296227 56.08556719662185 H 0.0 **** 0.06
32230 H 83.57925117842063 82.29688967233307 56.15844019727441 H 0.0 **** 0.06
32231 C 39.64695389664455 107.20041480752526 15.643019678210749 C 0.0 **** -0.24
32232 H 40.552192370787004 106.73525688963541 15.253043860437202 H 0.0 **** 0.06
32233 H 39.34182291960197 106.69198549778568 16.557495727119488 H 0.0 **** 0.06
32234 H 38.851985453719564 107.1248991590923 14.90152641285357 H 0.0 **** 0.06
32235 H 39.84361308797946 108.25118016550857 15.859960094810475 H 0.0 **** 0.06
32236 C 7.744158660420268 82.12615255423665 64.64582308083368 C 0.0 **** -0.24
32237 H 7.614825607087397 83.17235169785135 64.9261570471902 H 0.0 **** 0.06
32238 H 6.79407683685541 81.72675162744707 64.29008695492348 H 0.0 **** 0.06
32239 H 8.07718725799316 81.55625653320162 65.51225895533832 H 0.0 **** 0.06
32240 H 8.489177676254513 82.0521694509583 63.852889315004234 H 0.0 **** 0.06
32241 C 107.47289578933841 104.90259309377609 42.76450922151737 C 0.0 **** -0.24
32242 H 106.8411843984437 104.54017158522419 41.95427960029279 H 0.0 **** 0.06
32243 H 108.44603558864522 105.18908160947004 42.36570225789632 H 0.0 **** 0.06
32244 H 107.60201002783329 104.11264323714154 43.50530510294915 H 0.0 **** 0.06
32245 H 107.00277689450651 105.76652131956997 43.23274089802453 H 0.0 **** 0.06
32246 C 55.13877311959135 32.0133076775941 71.40347179973315 C 0.0 **** -0.24
32247 H 54.26166324273544 32.33057716882871 70.84071786256106 H 0.0 **** 0.06
32248 H 55.640767476300084 31.20579856834621 70.8690529424257 H 0.0 **** 0.06
32249 H 54.83102229949742 31.66136537853268 72.38773789434418 H 0.0 **** 0.06
32250 H 55.82203666726542 32.8545895334332 71.51619914992841 H 0.0 **** 0.06
32251 C 53.45672549157307 73.9943957395105 48.064474550889884 C 0.0 **** -0.24
32252 H 52.89059259247419 74.04614093326994 48.99490281055989 H 0.0 **** 0.06
32253 H 53.64062467480418 75.0026529223506 47.695080164552564 H 0.0 **** 0.06
32254 H 52.88697639383654 73.43289587430188 47.324380249252954 H 0.0 **** 0.06
32255 H 54.40768822803687 73.49411721805878 48.24711353834675 H 0.0 **** 0.06
32256 C 91.77628574690601 24.804385919695193 72.85826023534037 C 0.0 **** -0.24
32257 H 92.10855771186334 23.95655001763393 72.25895783178706 H 0.0 **** 0.06
32258 H 92.20926871140693 25.721917653936316 72.46001660066264 H 0.0 **** 0.06
32259 H 92.09809739752262 24.66799134540878 73.89017518276847 H 0.0 **** 0.06
32260 H 90.68899822043005 24.869724734650333 72.82213006744092 H 0.0 **** 0.06
32261 C 104.69831517126886 45.24628165029074 80.70749370329332 C 0.0 **** -0.24
32262 H 103.72700770408733 45.2819388343961 81.19984627192797 H 0.0 **** 0.06
32263 H 105.4862850550191 45.223779226868515 81.46116000946068 H 0.0 **** 0.06
32264 H 104.81991764426778 46.12913785892178 80.08013298552098 H 0.0 **** 0.06
32265 H 104.75961334670751 44.34979684284687 80.09044325148245 H 0.0 **** 0.06
32266 C 98.24365833052855 66.67946677945085 53.43333874953839 C 0.0 **** -0.24
32267 H 97.41028114966377 66.8440749384142 52.74961116475913 H 0.0 **** 0.06
32268 H 99.17716601110695 66.9502910176693 52.93927760645431 H 0.0 **** 0.06
32269 H 98.27480415280644 65.62883732197591 53.72079897043619 H 0.0 **** 0.06
32270 H 98.11051053807958 67.29578060277584 54.322548891482086 H 0.0 **** 0.06
32271 C 19.20061993990997 104.94347741206717 23.69809172078689 C 0.0 **** -0.24
32272 H 19.389383774248635 104.91852131711966 22.624792999042427 H 0.0 **** 0.06
32273 H 19.806115364030855 104.18164642384083 24.190987918586373 H 0.0 **** 0.06
32274 H 18.14513579012311 104.74729847866146 23.885246042482507 H 0.0 **** 0.06
32275 H 19.463119977031468 105.92607355970799 24.089540631075437 H 0.0 **** 0.06
32276 C 32.902008790615916 45.2900444868491 21.402665347203964 C 0.0 **** -0.24
32277 H 32.88244808104168 44.3843147887998 22.009275481289336 H 0.0 **** 0.06
32278 H 33.76689544800155 45.8931943804686 21.677539811089815 H 0.0 **** 0.06
32279 H 31.990529462747375 45.86254431738199 21.576309065403066 H 0.0 **** 0.06
32280 H 32.966044978119 45.01977225416999 20.348164484302302 H 0.0 **** 0.06
32281 C 88.29093558842362 29.403696531079277 79.32981726090748 C 0.0 **** -0.24
32282 H 89.3335405061287 29.69164049248161 79.46561492764087 H 0.0 **** 0.06
32283 H 87.77904005089212 30.163404410723444 78.73859677764267 H 0.0 **** 0.06
32284 H 87.80843431718836 29.315056087926962 80.30357296189234 H 0.0 **** 0.06
32285 H 88.24241435431831 28.445823021048625 78.8122636481618 H 0.0 **** 0.06
32286 C 15.408517590340011 81.6992709312882 26.094843677271342 C 0.0 **** -0.24
32287 H 16.153302894949434 82.29742737969588 26.61804951768636 H 0.0 **** 0.06
32288 H 15.271913535221358 80.75170382048512 26.617242664556898 H 0.0 **** 0.06
32289 H 15.746762766078689 81.50660057228026 25.076552420783116 H 0.0 **** 0.06
32290 H 14.462090492515472 82.23845557359317 26.066748159663746 H 0.0 **** 0.06
32291 C 65.05304148894623 14.986989553888918 12.093115189844127 C 0.0 **** -0.24
32292 H 64.39127112456607 15.350271324613999 12.878862625068507 H 0.0 **** 0.06
32293 H 65.4347125640554 15.833087145365596 11.520543052228021 H 0.0 **** 0.06
32294 H 64.50080370436672 14.319890619809655 11.432050807601797 H 0.0 **** 0.06
32295 H 65.88689141339997 14.446210228619208 12.542211865030282 H 0.0 **** 0.06
32296 C 56.779238352780965 22.025261623371364 50.44677190785751 C 0.0 **** -0.24
32297 H 57.815604284080905 22.3115120083919 50.62916479021038 H 0.0 **** 0.06
32298 H 56.674520134005036 21.679088908404765 49.418780054282706 H 0.0 **** 0.06
32299 H 56.13128829919813 22.887466090512703 50.6073270775085 H 0.0 **** 0.06
32300 H 56.497693135822175 21.225655728990887 51.13136258556415 H 0.0 **** 0.06
32301 C 42.17012895090859 6.671476996479214 56.09076532152259 C 0.0 **** -0.24
32302 H 43.09452899019942 7.225612015084039 56.25108886684265 H 0.0 **** 0.06
32303 H 42.16704226956536 5.779679290613444 56.71833213772488 H 0.0 **** 0.06
32304 H 42.098276704526356 6.379558506097055 55.04331195594881 H 0.0 **** 0.06
32305 H 41.3194950899494 7.302159120610838 56.35097076352528 H 0.0 **** 0.06
32306 C 78.02409629712105 71.62980946433765 47.23087631601288 C 0.0 **** -0.24
32307 H 78.80262549461224 71.7077910610355 46.47228164921063 H 0.0 **** 0.06
32308 H 77.90508871750035 72.59178078083556 47.72901594855557 H 0.0 **** 0.06
32309 H 78.306515379149 70.87277438179505 47.962958355880346 H 0.0 **** 0.06
32310 H 77.08432051092859 71.34524405956832 46.75847532694496 H 0.0 **** 0.06
32311 C 39.94940568111474 34.43084865543858 90.12949001111909 C 0.0 **** -0.24
32312 H 39.17487328549416 34.1015105797199 90.82153097138388 H 0.0 **** 0.06
32313 H 39.90271122827771 33.83184797135539 89.21991233387234 H 0.0 **** 0.06
32314 H 40.92763302302615 34.310878526643364 90.59342652606495 H 0.0 **** 0.06
32315 H 39.79162729277077 35.48098770020283 89.88165993010273 H 0.0 **** 0.06
32316 C 37.71280073324169 1.628815670869364 50.22122734787311 C 0.0 **** -0.24
32317 H 38.55153448444577 0.9330441821744282 50.23025172219013 H 0.0 **** 0.06
32318 H 37.31925556540267 1.7359274293427953 51.232271376038966 H 0.0 **** 0.06
32319 H 36.93087993102745 1.2461892332109192 49.56554939288458 H 0.0 **** 0.06
32320 H 38.049723089302574 2.59920208970391 49.85722977411578 H 0.0 **** 0.06
32321 C 44.83980310078067 50.56028595946475 49.44053346564521 C 0.0 **** -0.24
32322 H 45.85805948595697 50.42008893991084 49.07735929760366 H 0.0 **** 0.06
32323 H 44.86539342345202 50.83316130218776 50.49579596582191 H 0.0 **** 0.06
32324 H 44.27944549989667 49.63321607682167 49.31831015176881 H 0.0 **** 0.06
32325 H 44.357189251752345 51.354281264552185 48.87094585734448 H 0.0 **** 0.06
32326 C 69.82041531155755 17.062568022215913 15.468141616482963 C 0.0 **** -0.24
32327 H 69.94868709938754 16.0784781293726 15.920294494042757 H 0.0 **** 0.06
32328 H 68.79878484624385 17.405782902127697 15.629648413733207 H 0.0 **** 0.06
32329 H 70.01842323208825 16.998701712702854 14.398439479503821 H 0.0 **** 0.06
32330 H 70.51699971906828 17.765548904280877 15.924799876800257 H 0.0 **** 0.06
32331 C 24.221586903174398 76.22052245745931 23.10992468274995 C 0.0 **** -0.24
32332 H 24.515112779255844 76.7130012923152 24.037611563688444 H 0.0 **** 0.06
32333 H 25.08997735092362 75.7326131928532 22.66741332122541 H 0.0 **** 0.06
32334 H 23.82680745164015 76.9615133412039 22.414631622869905 H 0.0 **** 0.06
32335 H 23.454509551988963 75.47595383445784 23.321460983009615 H 0.0 **** 0.06
32336 C 6.442507420116243 17.638685703009685 76.70961301962706 C 0.0 **** -0.24
32337 H 6.262564716889017 18.686785125709235 76.95068147647551 H 0.0 **** 0.06
32338 H 6.6469687528619374 17.08622776687335 77.62735785490554 H 0.0 **** 0.06
32339 H 7.298015635591042 17.562312505773406 76.04029811655103 H 0.0 **** 0.06
32340 H 5.56098864450081 17.22174784231322 76.2226333503506 H 0.0 **** 0.06
32341 C 7.361809225190996 59.90215781591894 66.56902880145785 C 0.0 **** -0.24
32342 H 8.34514170834106 60.19954635281658 66.20230532758586 H 0.0 **** 0.06
32343 H 6.7979271235955565 60.790757226149196 66.85493238008158 H 0.0 **** 0.06
32344 H 7.480102273837673 59.252894653015915 67.43621032999027 H 0.0 **** 0.06
32345 H 6.827948382751728 59.36891118266584 65.78401973467282 H 0.0 **** 0.06
32346 C 40.86692446199409 81.03381831930074 34.71848592292281 C 0.0 **** -0.24
32347 H 40.27169372651463 80.40401239237087 34.05829993982627 H 0.0 **** 0.06
32348 H 40.22038716244363 81.48256872582087 35.47312647530174 H 0.0 **** 0.06
32349 H 41.3454769103173 81.82049338391323 34.134355220266684 H 0.0 **** 0.06
32350 H 41.630754207769556 80.42893420460035 35.207121838703756 H 0.0 **** 0.06
32351 C 98.67060612340677 36.07922584550163 29.055879040281596 C 0.0 **** -0.24
32352 H 98.87047226966061 36.84906429007866 28.311312745036275 H 0.0 **** 0.06
32353 H 98.93781352593601 35.10395819186933 28.649512311340914 H 0.0 **** 0.06
32354 H 97.61131001234205 36.08863827515047 29.31300526901711 H 0.0 **** 0.06
32355 H 99.26334494869207 36.276004328872155 29.950077409300775 H 0.0 **** 0.06
32356 C 38.16671222697694 71.19134969994234 93.95646247296116 C 0.0 **** -0.24
32357 H 37.621814284168245 71.12435846069863 93.01389299283645 H 0.0 **** 0.06
32358 H 39.21354720878812 71.41837088387074 93.75542610717451 H 0.0 **** 0.06
32359 H 38.09540598759199 70.24016609995067 94.484885560593 H 0.0 **** 0.06
32360 H 37.73396373514761 71.98185943638589 94.57059592201209 H 0.0 **** 0.06
32361 C 67.73626909882906 96.01227452271846 98.14497603730857 C 0.0 **** -0.24
32362 H 68.3678723557107 95.24845650219014 97.69071716967738 H 0.0 **** 0.06
32363 H 68.32797430845915 96.60430125410798 98.84296601634006 H 0.0 **** 0.06
32364 H 66.91542786687863 95.53438424678605 98.67807096296315 H 0.0 **** 0.06
32365 H 67.33506702974854 96.6617639419172 97.36661291295002 H 0.0 **** 0.06
32366 C 57.926473057082916 80.72431089258708 65.7061839151817 C 0.0 **** -0.24
32367 H 58.24792779097376 80.09258472356191 66.53406954634715 H 0.0 **** 0.06
32368 H 57.22342373911154 80.17405909360727 65.08084772886791 H 0.0 **** 0.06
32369 H 58.79349285292925 81.01351580521396 65.11197356411598 H 0.0 **** 0.06
32370 H 57.440431336184325 81.61800181202372 66.09872660516396 H 0.0 **** 0.06
32371 C 82.13408117458135 61.43641943800091 31.897332388937656 C 0.0 **** -0.24
32372 H 82.95569896713513 61.813498054917886 31.28843120935951 H 0.0 **** 0.06
32373 H 81.92559659178382 60.401932992999775 31.62458946727682 H 0.0 **** 0.06
32374 H 81.24607687786836 62.04390361529289 31.72541954215619 H 0.0 **** 0.06
32375 H 82.41059866693186 61.48580503813611 32.95089060284243 H 0.0 **** 0.06
32376 C 33.3173317404003 10.214101730318873 110.24492815455172 C 0.0 **** -0.24
32377 H 33.414411609914744 9.304042451868085 110.83717840150523 H 0.0 **** 0.06
32378 H 34.298467949737244 10.669229403212142 110.11398460865888 H 0.0 **** 0.06
32379 H 32.65807202356074 10.912579039057704 110.76072833766287 H 0.0 **** 0.06
32380 H 32.895616536614114 9.969309227642938 109.27002013075908 H 0.0 **** 0.06
32381 C 20.03953171269393 63.67215002763558 32.22623872069999 C 0.0 **** -0.24
32382 H 19.732524973287383 63.64532968342647 33.27222022651352 H 0.0 **** 0.06
32383 H 20.975000944882396 64.2256814039949 32.13726047125235 H 0.0 **** 0.06
32384 H 19.267891217460573 64.16549419304151 31.634323805724158 H 0.0 **** 0.06
32385 H 20.181718631807513 62.654864205925165 31.863463173102822 H 0.0 **** 0.06
32386 C 45.25913106903107 59.29098995156767 90.10897632178651 C 0.0 **** -0.24
32387 H 44.61061575846759 59.027053907329446 90.94464396627336 H 0.0 **** 0.06
32388 H 45.413717910435196 58.414415543821576 89.47887949730097 H 0.0 **** 0.06
32389 H 46.21950356467363 59.63817866425285 90.49095594483657 H 0.0 **** 0.06
32390 H 44.79315374767339 60.08247076762012 89.52297296942106 H 0.0 **** 0.06
32391 C 86.24427394686546 83.67745091325395 96.50399222898173 C 0.0 **** -0.24
32392 H 86.58408515150624 84.71119970284553 96.56353628357556 H 0.0 **** 0.06
32393 H 86.6576873577129 83.1103934148573 97.3388293047947 H 0.0 **** 0.06
32394 H 86.58001777475161 83.23764105949334 95.56508164399219 H 0.0 **** 0.06
32395 H 85.1549124305141 83.64995501363796 96.54920577430411 H 0.0 **** 0.06
32396 C 87.45697244414254 75.3394151996352 62.78718611169808 C 0.0 **** -0.24
32397 H 87.56536710813418 76.14778232350018 62.06408589695536 H 0.0 **** 0.06
32398 H 87.97121558637701 75.60691519321762 63.71065051836649 H 0.0 **** 0.06
32399 H 87.89293387789996 74.42680795060647 62.379854053244685 H 0.0 **** 0.06
32400 H 86.39929948153531 75.17588538841973 62.99441702078133 H 0.0 **** 0.06
32401 C 57.70744542694225 57.136837910813526 2.0943353841483088 C 0.0 **** -0.24
32402 H 57.17101856868431 57.14831893546872 1.1454285636357326 H 0.0 **** 0.06
32403 H 57.8368353969606 58.15954635367158 2.4498680231300796 H 0.0 **** 0.06
32404 H 58.684384214814074 56.674330920213116 1.954730206730801 H 0.0 **** 0.06
32405 H 57.137368150549655 56.56607819847457 2.8276579614100683 H 0.0 **** 0.06
32406 C 77.21721348015615 94.59191719370743 37.09894853065225 C 0.0 **** -0.24
32407 H 77.43242445702319 94.20762694048526 36.10147371335364 H 0.0 **** 0.06
32408 H 77.8412595903776 95.46345089347278 37.29525483730015 H 0.0 **** 0.06
32409 H 77.4268384022582 93.81944479786459 37.83853321026089 H 0.0 **** 0.06
32410 H 76.16622752176588 94.87565582595148 37.15936928170558 H 0.0 **** 0.06
32411 C 51.01288814036354 18.926878856000826 70.1828620519432 C 0.0 **** -0.24
32412 H 50.53006147655901 17.949873523052304 70.14742527965598 H 0.0 **** 0.06
32413 H 52.031437567567906 18.815670123609664 70.5543864802161 H 0.0 **** 0.06
32414 H 50.45294187414402 19.584744683717616 70.84695950394541 H 0.0 **** 0.06
32415 H 51.03654523876568 19.35575054913221 69.18109604111575 H 0.0 **** 0.06
32416 C 36.2106066062459 79.8158294023566 11.777173118670802 C 0.0 **** -0.24
32417 H 35.15457107166657 79.6542230173169 11.990937015329877 H 0.0 **** 0.06
32418 H 36.4736634692469 79.31338486357572 10.846081647275724 H 0.0 **** 0.06
32419 H 36.81284048464616 79.41097835086981 12.59073856319003 H 0.0 **** 0.06
32420 H 36.402217296691504 80.88485624283368 11.681419687623503 H 0.0 **** 0.06
32421 C 51.81486355783539 39.410814553584515 24.865623791782212 C 0.0 **** -0.24
32422 H 52.04216204396924 38.96555161927736 23.89705523632861 H 0.0 **** 0.06
32423 H 51.666475659399445 38.621651061435244 25.60262565023632 H 0.0 **** 0.06
32424 H 50.907127558435924 40.00924758343194 24.7855487214282 H 0.0 **** 0.06
32425 H 52.64376626221144 40.04682233875437 25.17553525001773 H 0.0 **** 0.06
32426 C 97.52911686373221 101.34438590040565 54.50883479842918 C 0.0 **** -0.24
32427 H 96.97742473858062 102.26286428508615 54.30368342552072 H 0.0 **** 0.06
32428 H 98.0342442484964 101.01495217470472 53.600609330826614 H 0.0 **** 0.06
32429 H 96.8366907891185 100.57129422662007 54.84219816565093 H 0.0 **** 0.06
32430 H 98.26745275340568 101.53152584052577 55.28877486470196 H 0.0 **** 0.06
32431 C 87.6462978122874 17.22961255579196 106.47564705142257 C 0.0 **** -0.24
32432 H 86.63956684656148 17.091614748471414 106.08067980962517 H 0.0 **** 0.06
32433 H 87.58640189322489 17.588126969129092 107.50308347678212 H 0.0 **** 0.06
32434 H 88.17824915211031 17.959981465570706 105.86599570956388 H 0.0 **** 0.06
32435 H 88.17929817780129 16.27848378641994 106.45136809614021 H 0.0 **** 0.06
32436 C 23.34185847800825 63.68416654341773 1.9337746037196553 C 0.0 **** -0.24
32437 H 24.160409190072727 64.19247625263374 2.443817470019866 H 0.0 **** 0.06
32438 H 23.58944118258475 63.56503714361932 0.8784392169568491 H 0.0 **** 0.06
32439 H 22.431007181710356 64.27540604226726 2.029871014805366 H 0.0 **** 0.06
32440 H 23.187787011428895 62.70331232334952 2.3835586794270114 H 0.0 **** 0.06
32441 C 71.37302086878549 1.3662151459880505 92.9100760064091 C 0.0 **** -0.24
32442 H 72.01716805065375 0.4882640951821884 92.94523329310225 H 0.0 **** 0.06
32443 H 70.82529285329252 1.451720317922394 93.84868541855425 H 0.0 **** 0.06
32444 H 70.66701341817614 1.2643517081241242 92.08514806219485 H 0.0 **** 0.06
32445 H 71.98175126090162 2.2577302960901022 92.76003012432145 H 0.0 **** 0.06
32446 C 12.602589670918018 70.45488674305034 24.279437218270942 C 0.0 **** -0.24
32447 H 12.834496646065858 71.48532727979551 24.01009322165335 H 0.0 **** 0.06
32448 H 12.344227626985877 70.4064153494424 25.338042618152272 H 0.0 **** 0.06
32449 H 13.47147019775138 69.82538035443764 24.087275642127423 H 0.0 **** 0.06
32450 H 11.76022190930114 70.10455482224972 23.683013016897604 H 0.0 **** 0.06
32451 C 40.83491426749856 90.65661466827433 21.806266935228933 C 0.0 **** -0.24
32452 H 41.03051910911017 91.59011000098161 21.277415344803856 H 0.0 **** 0.06
32453 H 41.757416560440106 90.07931173989563 21.87446973818068 H 0.0 **** 0.06
32454 H 40.085237238059904 90.08149916883902 21.2622859841847 H 0.0 **** 0.06
32455 H 40.468326132783204 90.87652931166564 22.808525075166926 H 0.0 **** 0.06
32456 C 84.89132634839272 22.953715023488144 63.71489680801926 C 0.0 **** -0.24
32457 H 85.29043790699565 22.44637535739861 64.59369155202154 H 0.0 **** 0.06
32458 H 83.85249848244081 23.229033123938137 63.89552159712406 H 0.0 **** 0.06
32459 H 84.94699359791936 22.28674644029786 62.85470625549658 H 0.0 **** 0.06
32460 H 85.47594732347429 23.851485965612568 63.516757137533034 H 0.0 **** 0.06
32461 C 75.3152937927298 76.23241274516863 70.83133522244981 C 0.0 **** -0.24
32462 H 74.85735445976843 76.4566851402409 71.79385177221417 H 0.0 **** 0.06
32463 H 76.33710018770395 76.61276857902583 70.8176639013974 H 0.0 **** 0.06
32464 H 74.74039031515439 76.70635677269262 70.03611213892009 H 0.0 **** 0.06
32465 H 75.32747277153875 75.15313459424054 70.67726994887454 H 0.0 **** 0.06
32466 C 13.862345244155875 83.81508251798391 58.85184861619713 C 0.0 **** -0.24
32467 H 14.644440811136704 83.84453406951326 58.093687139888715 H 0.0 **** 0.06
32468 H 13.463039241367227 82.80231733609037 58.92234141783774 H 0.0 **** 0.06
32469 H 13.063241636447557 84.50204559243531 58.57558637651574 H 0.0 **** 0.06
32470 H 14.27933085036372 84.10924687638595 59.81490212205537 H 0.0 **** 0.06
32471 C 83.2311188447456 106.12285318412772 85.71812487517411 C 0.0 **** -0.24
32472 H 82.75781881265664 106.1226981176892 84.73589383210702 H 0.0 **** 0.06
32473 H 82.69461659209266 105.44270985908359 86.37914233745414 H 0.0 **** 0.06
32474 H 83.2038748937052 107.13048338102178 86.13282583003871 H 0.0 **** 0.06
32475 H 84.26682745835433 105.797531927669 85.62177932620469 H 0.0 **** 0.06
32476 C 55.180607442642994 88.9755068505897 59.235163125534996 C 0.0 **** -0.24
32477 H 54.504898304031855 89.01865794947598 58.38045620617771 H 0.0 **** 0.06
32478 H 55.74549922007955 89.90696990582121 59.29839065194 H 0.0 **** 0.06
32479 H 55.869372526282305 88.14048888886792 59.11136757475117 H 0.0 **** 0.06
32480 H 54.602092395228304 88.8374708371983 60.14893999208289 H 0.0 **** 0.06
32481 C 37.16851022233624 55.620582706313385 72.55546599628042 C 0.0 **** -0.24
32482 H 37.03371436636803 56.637770152419954 72.92265598344278 H 0.0 **** 0.06
32483 H 37.34320050917205 54.95052816123809 73.39798543448029 H 0.0 **** 0.06
32484 H 38.024509982842176 55.588803160041024 71.88161349894129 H 0.0 **** 0.06
32485 H 36.272438828222334 55.30616104511077 72.01992623790318 H 0.0 **** 0.06
32486 C 109.3753711081502 54.8672572373277 45.552216879474486 C 0.0 **** -0.24
32487 H 109.19330695142446 55.27640899337281 46.54556534526171 H 0.0 **** 0.06
32488 H 108.42983220864511 54.77365614902884 45.01872674545416 H 0.0 **** 0.06
32489 H 109.84213664099143 53.88642480606919 45.643120202327395 H 0.0 **** 0.06
32490 H 110.0389067947986 55.53512940583191 45.00155730761497 H 0.0 **** 0.06
32491 C 66.0759147477167 74.98088955129418 14.877504515434566 C 0.0 **** -0.24
32492 H 66.07779917658411 73.98066711229177 15.309892325504393 H 0.0 **** 0.06
32493 H 65.09934775566074 75.44193628098901 15.032128763468279 H 0.0 **** 0.06
32494 H 66.28136442107478 74.91548673601619 13.808805464950183 H 0.0 **** 0.06
32495 H 66.84410435216955 75.58664895267987 15.358472316299753 H 0.0 **** 0.06
32496 C 16.11978957602951 18.42864710608916 101.38372407992577 C 0.0 **** -0.24
32497 H 16.027008031442175 17.367890269902986 101.14847037792252 H 0.0 **** 0.06
32498 H 16.513462726861896 18.959399942072906 100.5161270107082 H 0.0 **** 0.06
32499 H 16.79916889509735 18.55540233272484 102.22635719259348 H 0.0 **** 0.06
32500 H 15.14055556592388 18.82969005801546 101.64219256431903 H 0.0 **** 0.06
32501 C 29.348714590793122 72.32695577506507 82.26680499153554 C 0.0 **** -0.24
32502 H 28.326344068407792 72.57723021359605 82.54791154017119 H 0.0 **** 0.06
32503 H 29.8334429731853 71.79983087032231 83.08946806777772 H 0.0 **** 0.06
32504 H 29.899703226884526 73.24151333057262 82.0463129091379 H 0.0 **** 0.06
32505 H 29.33672780707994 71.68892686458003 81.38330901392231 H 0.0 **** 0.06
32506 C 67.05285154528781 42.04554361445406 81.55239001371393 C 0.0 **** -0.24
32507 H 66.40703775562169 42.87947551703638 81.2767836249426 H 0.0 **** 0.06
32508 H 67.20060740168726 42.04303341629185 82.63300637087195 H 0.0 **** 0.06
32509 H 68.01576926444143 42.15208806495076 81.0541547153432 H 0.0 **** 0.06
32510 H 66.58627038275911 41.10884806086614 81.24626548684068 H 0.0 **** 0.06
32511 C 15.109506835727643 103.92885256571626 41.35815934868316 C 0.0 **** -0.24
32512 H 14.754006032125517 103.34871523021543 42.20992903582711 H 0.0 **** 0.06
32513 H 14.329659130910102 103.97168534612312 40.59774784953229 H 0.0 **** 0.06
32514 H 15.99864898883203 103.45489828895715 40.941629233174396 H 0.0 **** 0.06
32515 H 15.355349754740303 104.93949341494148 41.68455033816622 H 0.0 **** 0.06
32516 C 97.54596900633237 109.78342658649208 95.94782225094406 C 0.0 **** -0.24
32517 H 98.50505035933537 109.65148050094257 96.44928705663267 H 0.0 **** 0.06
32518 H 97.67831837277873 109.6575141801263 94.8734929646836 H 0.0 **** 0.06
32519 H 97.16252681891757 110.78262599397118 96.15368470482186 H 0.0 **** 0.06
32520 H 96.83895658071583 109.0399883090789 96.31698038345847 H 0.0 **** 0.06
32521 C 41.88743146146493 85.55018722463106 44.57899375310137 C 0.0 **** -0.24
32522 H 41.23123908229687 84.68862604899351 44.459571873057484 H 0.0 **** 0.06
32523 H 42.19782166783202 85.91030047056643 43.59815732447146 H 0.0 **** 0.06
32524 H 42.76688376656011 85.25916225904535 45.15363525563228 H 0.0 **** 0.06
32525 H 41.35501262822365 86.34232217551647 45.106446300950296 H 0.0 **** 0.06
32526 C 67.83003641221536 100.62133812882723 59.04046480264566 C 0.0 **** -0.24
32527 H 67.44575448202535 99.60681699992398 58.93833267535024 H 0.0 **** 0.06
32528 H 68.90044232330912 100.58626203209087 59.24347364533031 H 0.0 **** 0.06
32529 H 67.31983561748953 101.12096508359923 59.86443374916604 H 0.0 **** 0.06
32530 H 67.65234868950441 101.1719595080769 58.11682857038841 H 0.0 **** 0.06
32531 C 45.501256241463466 90.62992313788048 0.19765346308173548 C 0.0 **** -0.24
32532 H 46.29471313159877 91.27235014264393 -0.18395160644473663 H 0.0 **** 0.06
32533 H 45.415461929447986 90.76134995771855 1.2769523698220695 H 0.0 **** 0.06
32534 H 45.738499607921824 89.5890402009421 -0.024416515564197994 H 0.0 **** 0.06
32535 H 44.557313375273 90.89685937931533 -0.2777176005257047 H 0.0 **** 0.06
32536 C 101.04202499220001 4.384905989722759 14.954340384323629 C 0.0 **** -0.24
32537 H 101.19288039179736 3.3052608835121173 14.938756689661911 H 0.0 **** 0.06
32538 H 101.65843160977309 4.8265028509452925 15.73844746280998 H 0.0 **** 0.06
32539 H 99.99233278277542 4.6016604525717195 15.152576359013736 H 0.0 **** 0.06
32540 H 101.32544935391206 4.8053105021727625 13.989635564241745 H 0.0 **** 0.06
32541 C 75.0995764440339 66.37877815653032 69.7536505920516 C 0.0 **** -0.24
32542 H 74.71237455713118 65.45350281805476 70.1793757831203 H 0.0 **** 0.06
32543 H 75.07174148433695 67.16522653266611 70.50759149051497 H 0.0 **** 0.06
32544 H 74.48842009549986 66.67050205380404 68.90049718503614 H 0.0 **** 0.06
32545 H 76.12916823428507 66.22467725766904 69.42711191530805 H 0.0 **** 0.06
32546 C 62.028779737790046 52.71872939349339 68.3477692406176 C 0.0 **** -0.24
32547 H 62.59916162690729 53.342665870805206 67.65946297195978 H 0.0 **** 0.06
32548 H 62.46175834723749 51.71883563716642 68.37509554090718 H 0.0 **** 0.06
32549 H 60.99384073577363 52.65856577757279 68.01209484827643 H 0.0 **** 0.06
32550 H 62.06196887794346 53.15758348872487 69.34539108187457 H 0.0 **** 0.06
32551 C 3.4521017322911263 92.3678480862133 71.1931493269755 C 0.0 **** -0.24
32552 H 3.0837653900618847 93.33323448222687 71.54155458488235 H 0.0 **** 0.06
32553 H 4.492846705089946 92.4668103198548 70.88306359741391 H 0.0 **** 0.06
32554 H 2.8508857210173346 92.0334305140416 70.3476240864679 H 0.0 **** 0.06
32555 H 3.3804037418895803 91.63923448400435 72.00044997174582 H 0.0 **** 0.06
32556 C 92.82136036395653 25.63095101415462 59.07232780372152 C 0.0 **** -0.24
32557 H 92.75571213510835 26.7178897458773 59.125762440087215 H 0.0 **** 0.06
32558 H 93.09640379779191 25.33322431115444 58.060229647282654 H 0.0 **** 0.06
32559 H 91.8552505249905 25.19697728645768 59.3294198090087 H 0.0 **** 0.06
32560 H 93.57669212600477 25.277469716782804 59.77392855495992 H 0.0 **** 0.06
32561 C 15.380017598526223 52.28754176307331 68.5665654591313 C 0.0 **** -0.24
32562 H 14.312790088645883 52.086996923469115 68.65558170306468 H 0.0 **** 0.06
32563 H 15.531586012970408 53.33111077159333 68.2906098922183 H 0.0 **** 0.06
32564 H 15.8086069906918 51.642312545291475 67.8002006099095 H 0.0 **** 0.06
32565 H 15.867544221270478 52.09028196442017 69.52199215054463 H 0.0 **** 0.06
32566 C 19.022138920137593 93.7135697314407 75.83142689374966 C 0.0 **** -0.24
32567 H 17.963293405357945 93.8495769681255 76.0503627591334 H 0.0 **** 0.06
32568 H 19.156074287916397 92.80776993911047 75.23927333825759 H 0.0 **** 0.06
32569 H 19.577654181717605 93.62336754680979 76.76448586997816 H 0.0 **** 0.06
32570 H 19.389839941248 94.57240892223518 75.27069354234061 H 0.0 **** 0.06
32571 C 93.96794305068065 33.23663319931069 106.3390360510479 C 0.0 **** -0.24
32572 H 92.87966584462754 33.28116070482213 106.29782013043621 H 0.0 **** 0.06
32573 H 94.27675562252163 32.28975070740279 106.78311051172648 H 0.0 **** 0.06
32574 H 94.34236495835502 34.06257890850259 106.94519423002222 H 0.0 **** 0.06
32575 H 94.37340802468078 33.315236422334294 105.32992681060354 H 0.0 **** 0.06
32576 C 63.94287661449653 101.42999286527265 63.17735135390589 C 0.0 **** -0.24
32577 H 63.72879550191578 101.5554517707381 62.11626321397776 H 0.0 **** 0.06
32578 H 63.157676341930255 101.90640397158711 63.765125771459665 H 0.0 **** 0.06
32579 H 64.90261830984866 101.89129733526272 63.41133388245525 H 0.0 **** 0.06
32580 H 63.982701402269015 100.36813754053856 63.417105211206305 H 0.0 **** 0.06
32581 C 104.50971634729939 74.15749377386041 50.10501703987046 C 0.0 **** -0.24
32582 H 104.97767560122351 74.11502099865601 49.121379432114054 H 0.0 **** 0.06
32583 H 105.18030027536415 74.65699278032325 50.805022557284985 H 0.0 **** 0.06
32584 H 104.30779161669987 73.14507676993968 50.45519836364355 H 0.0 **** 0.06
32585 H 103.57402451198647 74.71294053640251 50.03809592197052 H 0.0 **** 0.06
32586 C 73.19484841490582 7.82443812014634 23.687511887758564 C 0.0 **** -0.24
32587 H 73.21821393331469 6.8601831075730075 23.17906809285188 H 0.0 **** 0.06
32588 H 74.20873064818473 8.215196608518823 23.77110213343564 H 0.0 **** 0.06
32589 H 72.77018336188718 7.698402330395382 24.683285601287636 H 0.0 **** 0.06
32590 H 72.58132516092142 8.52171650140977 23.116403455563542 H 0.0 **** 0.06
32591 C 83.58161411895176 71.81729167983674 12.327193765080967 C 0.0 **** -0.24
32592 H 82.6182702006262 72.26528734460545 12.082085326395184 H 0.0 **** 0.06
32593 H 83.43849585635965 71.03782161251414 13.076807934588324 H 0.0 **** 0.06
32594 H 84.24888503095013 72.58361381434801 12.72185394257166 H 0.0 **** 0.06
32595 H 84.01883067365978 71.38167596651215 11.428742671282219 H 0.0 **** 0.06
32596 C 107.58038754065657 106.25349463686786 21.727342619731687 C 0.0 **** -0.24
32597 H 107.4491753120079 105.17387734116551 21.809669111976575 H 0.0 **** 0.06
32598 H 106.65527771686914 106.70409983582664 21.36616598470816 H 0.0 **** 0.06
32599 H 108.38724605193806 106.46865542149465 21.027775724259868 H 0.0 **** 0.06
32600 H 107.82781795129497 106.66354745904653 22.706422085158835 H 0.0 **** 0.06
32601 C 8.997619447197252 42.996861349332164 98.3345729806993 C 0.0 **** -0.24
32602 H 9.484189583283396 42.06468423663449 98.62314378486894 H 0.0 **** 0.06
32603 H 7.974243262487676 42.790119523419264 98.02053355341832 H 0.0 **** 0.06
32604 H 9.546021756200261 43.452039410669954 97.50948777196848 H 0.0 **** 0.06
32605 H 8.986733267056053 43.679749778895825 99.18424976093905 H 0.0 **** 0.06
32606 C 84.1307622164511 78.20394933816902 78.80849836450784 C 0.0 **** -0.24
32607 H 85.04580850559395 77.81876856210329 79.25820357963886 H 0.0 **** 0.06
32608 H 83.55873267934294 77.37812748532323 78.38503853323947 H 0.0 **** 0.06
32609 H 84.38523931035519 78.91309582459823 78.01965586272937 H 0.0 **** 0.06
32610 H 83.53530939105741 78.70634952871018 79.57036165803629 H 0.0 **** 0.06
32611 C 3.0351313356248397 64.16407009727246 100.37760112051961 C 0.0 **** -0.24
32612 H 2.124420406346786 64.70072910063774 100.11319157204353 H 0.0 **** 0.06
32613 H 3.338813589290666 64.44009792230426 101.38830956169983 H 0.0 **** 0.06
32614 H 3.827877649531473 64.42486854546715 99.67686639733104 H 0.0 **** 0.06
32615 H 2.8497239608928453 63.0912387840726 100.33415268250674 H 0.0 **** 0.06
32616 C 29.381116806912758 82.69941406830954 33.27660224644859 C 0.0 **** -0.24
32617 H 28.54114124746664 82.93057440496429 33.93237639727681 H 0.0 **** 0.06
32618 H 30.25678855952765 83.26640730071733 33.59522816103157 H 0.0 **** 0.06
32619 H 29.12661596661019 82.96838964000284 32.2516382596944 H 0.0 **** 0.06
32620 H 29.600079436045974 81.63346093137186 33.32992161860835 H 0.0 **** 0.06
32621 C 12.092250900898478 105.50065833607006 28.688787800803652 C 0.0 **** -0.24
32622 H 11.744671146395035 105.35339693055698 29.711184059043887 H 0.0 **** 0.06
32623 H 12.664706194259566 106.42650402643335 28.62866752971331 H 0.0 **** 0.06
32624 H 11.233931494424894 105.55903742153717 28.018273452380697 H 0.0 **** 0.06
32625 H 12.723827137723788 104.66233129450121 28.396218289802476 H 0.0 **** 0.06
32626 C 26.255685442697768 95.66959303274668 30.867878782070093 C 0.0 **** -0.24
32627 H 26.774936632090714 96.1714358893714 30.05027938531652 H 0.0 **** 0.06
32628 H 25.692534915005126 94.82357341502356 30.4747821187796 H 0.0 **** 0.06
32629 H 25.573199226399993 96.370703232174 31.347985823984402 H 0.0 **** 0.06
32630 H 26.98474747542133 95.3148164970798 31.597379273970077 H 0.0 **** 0.06
32631 C 104.34608286875327 33.46727264828223 58.17303228763623 C 0.0 **** -0.24
32632 H 105.12596002221845 32.70959928370118 58.24807507642191 H 0.0 **** 0.06
32633 H 103.79148408732361 33.327377765711105 57.245153337764926 H 0.0 **** 0.06
32634 H 104.80048992712042 34.45893774354889 58.17881045644381 H 0.0 **** 0.06
32635 H 103.66723797893027 33.37451603433948 59.020795556264744 H 0.0 **** 0.06
32636 C 20.917608706572423 101.37244215291386 103.6290595135759 C 0.0 **** -0.24
32637 H 21.224087993131093 102.36006396472436 103.28266754422896 H 0.0 **** 0.06
32638 H 19.950376712626877 101.4476463474769 104.12766398219235 H 0.0 **** 0.06
32639 H 21.65857868924533 100.98680280332155 104.32932125715759 H 0.0 **** 0.06
32640 H 20.836764985514378 100.69835207128574 102.77672416201597 H 0.0 **** 0.06
32641 C 44.2086566059729 82.9603990849901 34.93049099114933 C 0.0 **** -0.24
32642 H 43.65246790629727 82.89163626850309 33.995026084905675 H 0.0 **** 0.06
32643 H 44.41590251213175 84.00683211170717 35.154483823475914 H 0.0 **** 0.06
32644 H 45.14884851244114 82.41669081381845 34.83388733003244 H 0.0 **** 0.06
32645 H 43.61822276218016 82.52489725036605 35.736844994638886 H 0.0 **** 0.06
32646 C 7.346319995045624 51.94707111012942 84.49647269175128 C 0.0 **** -0.24
32647 H 7.612429023210144 52.09162294636338 83.44879118191164 H 0.0 **** 0.06
32648 H 7.1709071933643465 52.916345782267115 84.96316069099828 H 0.0 **** 0.06
32649 H 8.16037399862901 51.43724405656358 85.01058272556443 H 0.0 **** 0.06
32650 H 6.441287462064478 51.343026402371585 84.56036974764078 H 0.0 **** 0.06
32651 C 101.8439341577199 89.2577864243188 90.76240132023625 C 0.0 **** -0.24
32652 H 101.41292867656486 90.1717875973363 90.3533000074782 H 0.0 **** 0.06
32653 H 101.58311014060105 89.17470701656259 91.81840817409446 H 0.0 **** 0.06
32654 H 102.92817301914964 89.28744964875284 90.65602980391499 H 0.0 **** 0.06
32655 H 101.44870047536307 88.39757592192481 90.2209273843929 H 0.0 **** 0.06
32656 C 55.82054525027002 60.484818750662896 52.268501878689904 C 0.0 **** -0.24
32657 H 55.10913785149376 61.30120406733357 52.146210295866695 H 0.0 **** 0.06
32658 H 55.7768990927953 59.831125193301034 51.397005172345786 H 0.0 **** 0.06
32659 H 55.56851225114421 59.91491925399788 53.16375924267277 H 0.0 **** 0.06
32660 H 56.82712965293785 60.89182005445289 52.36787261225555 H 0.0 **** 0.06
32661 C 76.29649569386832 41.34721153158978 88.42208191196261 C 0.0 **** -0.24
32662 H 76.92266240255145 42.15396910801715 88.80480016815591 H 0.0 **** 0.06
32663 H 75.75857247036663 41.692223355019394 87.53943467391753 H 0.0 **** 0.06
32664 H 75.58240564567059 41.047135857304 89.18870287645171 H 0.0 **** 0.06
32665 H 76.92313785515634 40.495839691884555 88.15651399045981 H 0.0 **** 0.06
32666 C 46.717975537450485 8.858391534559757 12.545370878691728 C 0.0 **** -0.24
32667 H 45.96951174405915 8.327498215879132 11.957057213396098 H 0.0 **** 0.06
32668 H 47.04973205679654 8.223404839022294 13.3677201426014 H 0.0 **** 0.06
32669 H 46.2825764988097 9.77422141290009 12.946331091566023 H 0.0 **** 0.06
32670 H 47.56923067906771 9.107446544291975 11.912187657381253 H 0.0 **** 0.06
32671 C 54.76860692080305 37.74691388194515 79.81989876621043 C 0.0 **** -0.24
32672 H 54.126047193511795 38.55292183288134 79.4648256228628 H 0.0 **** 0.06
32673 H 54.668531908709184 36.88525512849748 79.15941867822613 H 0.0 **** 0.06
32674 H 54.47411010749096 37.4660603767677 80.83112014209411 H 0.0 **** 0.06
32675 H 55.8053186226706 38.08428760501022 79.8239700598385 H 0.0 **** 0.06
32676 C 25.831857605523478 69.06146453947724 43.64462653392249 C 0.0 **** -0.24
32677 H 25.634132357195842 69.88916681663022 44.32690981710226 H 0.0 **** 0.06
32678 H 26.85930954011554 69.12476486887601 43.28547287599932 H 0.0 **** 0.06
32679 H 25.147427109986825 69.11757952349183 42.79832178785492 H 0.0 **** 0.06
32680 H 25.687016837672676 68.1170980967641 44.168275128820625 H 0.0 **** 0.06
32681 C 89.16350738344414 12.13559363418662 86.15880045804863 C 0.0 **** -0.24
32682 H 89.8536560835177 12.951904482871043 86.36812561325691 H 0.0 **** 0.06
32683 H 88.59806196415065 11.897253622717102 87.06085664031781 H 0.0 **** 0.06
32684 H 89.72442618771643 11.25780790184308 85.83967355783345 H 0.0 **** 0.06
32685 H 88.47577475082284 12.435452819569633 85.36728350212081 H 0.0 **** 0.06
32686 C 45.61114165757172 98.22093084633406 66.88655409932767 C 0.0 **** -0.24
32687 H 45.048068951021165 99.0789841411256 66.51916546153473 H 0.0 **** 0.06
32688 H 44.933904527948826 97.53419662003769 67.39557646385202 H 0.0 **** 0.06
32689 H 46.37680733621866 98.5612380355681 67.5842107851193 H 0.0 **** 0.06
32690 H 46.084333973552845 97.71075317451022 66.04815475716612 H 0.0 **** 0.06
32691 C 88.72136328802239 55.46896633953095 19.88990124187569 C 0.0 **** -0.24
32692 H 89.20004576068574 56.35525449420066 19.472431278428303 H 0.0 **** 0.06
32693 H 89.10017849949709 54.58005850150347 19.38368417983949 H 0.0 **** 0.06
32694 H 87.64315380498479 55.538004284124774 19.74723806454807 H 0.0 **** 0.06
32695 H 88.94438777954204 55.4040529881446 20.954410995763055 H 0.0 **** 0.06
32696 C 7.763355475399138 84.36849858721133 53.9194530466317 C 0.0 **** -0.24
32697 H 8.14343902075376 83.56593045262666 53.2861421450379 H 0.0 **** 0.06
32698 H 8.588443406029342 84.81474364067137 54.47388243822462 H 0.0 **** 0.06
32699 H 7.030673865137999 83.96370849832716 54.61823514250494 H 0.0 **** 0.06
32700 H 7.290069558426225 85.12783763467219 53.29726789425939 H 0.0 **** 0.06
32701 C 49.82149852014537 34.476635318885826 35.26638844367585 C 0.0 **** -0.24
32702 H 48.73853757664989 34.38950736668335 35.35957157344754 H 0.0 **** 0.06
32703 H 50.2655385207484 34.56981573370791 36.25734737694904 H 0.0 **** 0.06
32704 H 50.06548983370181 35.3585253610338 34.67389292907467 H 0.0 **** 0.06
32705 H 50.21583577846877 33.586828345692965 34.77365879530058 H 0.0 **** 0.06
32706 C 45.81104354498163 28.798496985839733 29.131689126248546 C 0.0 **** -0.24
32707 H 46.84229286685229 29.136068571023657 29.02125331056135 H 0.0 **** 0.06
32708 H 45.688580996890366 28.317426008803267 30.10162434357744 H 0.0 **** 0.06
32709 H 45.576270874768454 28.086376486981152 28.34063292391835 H 0.0 **** 0.06
32710 H 45.139546699116096 29.653277426597867 29.06184621627392 H 0.0 **** 0.06
32711 C 88.87459053685899 33.71882951176164 37.646075832891746 C 0.0 **** -0.24
32712 H 87.86149507343237 33.507376020898505 37.3034364396735 H 0.0 **** 0.06
32713 H 89.1029155453399 33.095454348967564 38.51068663415332 H 0.0 **** 0.06
32714 H 88.95234722925443 34.769655789914566 37.92415268717685 H 0.0 **** 0.06
32715 H 89.58071655027712 33.501466259372364 36.8444955087756 H 0.0 **** 0.06
32716 C 8.412456881624621 64.74494902421588 106.45518274340264 C 0.0 **** -0.24
32717 H 9.132775199614116 65.54676366106628 106.2919419510651 H 0.0 **** 0.06
32718 H 8.376818579527765 64.49938551364636 107.51664881186448 H 0.0 **** 0.06
32719 H 8.71488311379079 63.865104676523515 105.88832652711221 H 0.0 **** 0.06
32720 H 7.42653693144797 65.07031138193224 106.12313316504807 H 0.0 **** 0.06
32721 C 52.762435242103095 106.33916087025312 12.224891158072694 C 0.0 **** -0.24
32722 H 53.75094166308202 105.88314939983229 12.286416479997229 H 0.0 **** 0.06
32723 H 52.016665583950726 105.56441908526247 12.047128647867268 H 0.0 **** 0.06
32724 H 52.74423365755979 107.0561276691005 11.404132948158349 H 0.0 **** 0.06
32725 H 52.53982293256422 106.85113063463797 13.160471403338207 H 0.0 **** 0.06
32726 C 16.673100281436234 6.047171810492799 93.84752235593255 C 0.0 **** -0.24
32727 H 17.5736054700767 5.799470430747036 94.41031113375824 H 0.0 **** 0.06
32728 H 16.349523650651534 7.056238603037272 94.1064397117679 H 0.0 **** 0.06
32729 H 15.883725395310904 5.337503093063376 94.09505281461743 H 0.0 **** 0.06
32730 H 16.88619443712193 5.996778946117246 92.78025569912967 H 0.0 **** 0.06
32731 C 98.46347241230083 33.19393151972474 13.358859778360511 C 0.0 **** -0.24
32732 H 98.9205788014956 32.34661018963982 13.87048177963598 H 0.0 **** 0.06
32733 H 97.72812063290431 33.659659849160846 14.014350873513678 H 0.0 **** 0.06
32734 H 97.97268828186958 32.8461901137556 12.449624053260976 H 0.0 **** 0.06
32735 H 99.2344486104464 33.92008861807835 13.101322793192026 H 0.0 **** 0.06
32736 C 19.902748733816935 19.32472748381889 52.979300452598174 C 0.0 **** -0.24
32737 H 20.79579247983014 18.74299271411502 53.21043314320821 H 0.0 **** 0.06
32738 H 19.056035539179703 18.929920377732174 53.54065313786108 H 0.0 **** 0.06
32739 H 19.694168374259178 19.25863626601017 51.91124289685836 H 0.0 **** 0.06
32740 H 20.068116017316953 20.366633618704697 53.252935216000964 H 0.0 **** 0.06
32741 C 100.98086748007705 39.40026940413672 79.62151133805106 C 0.0 **** -0.24
32742 H 101.1814363577696 39.90401686401192 80.56763205212582 H 0.0 **** 0.06
32743 H 100.3034070824753 38.563407928275865 79.7927510452958 H 0.0 **** 0.06
32744 H 101.91634165008895 39.030928831514984 79.20073779541596 H 0.0 **** 0.06
32745 H 100.52148352038091 40.10290902462455 78.92607500997133 H 0.0 **** 0.06
32746 C 84.94294748647695 67.99265644752865 0.2602647243621732 C 0.0 **** -0.24
32747 H 84.17352163623843 67.48422812465708 0.841046283301722 H 0.0 **** 0.06
32748 H 85.58596936429416 68.56288388300366 0.9308982177877709 H 0.0 **** 0.06
32749 H 84.47170840094248 68.66727678905377 -0.45452954758785324 H 0.0 **** 0.06
32750 H 85.53979879808725 67.25433235582865 -0.27549249086628436 H 0.0 **** 0.06
32751 C 69.00779805407615 9.322035170672592 88.12734730662852 C 0.0 **** -0.24
32752 H 69.12255551057996 10.156990541558514 88.81910450684917 H 0.0 **** 0.06
32753 H 68.66804058823726 9.69514823825429 87.1613942977077 H 0.0 **** 0.06
32754 H 68.27572268515902 8.619870028694578 88.5240063657878 H 0.0 **** 0.06
32755 H 69.96672897316262 8.817459569613845 88.00577540050223 H 0.0 **** 0.06
32756 C 55.96337512991692 22.340241653529233 74.49075699415329 C 0.0 **** -0.24
32757 H 56.7641831785826 21.671703802888032 74.17262430058116 H 0.0 **** 0.06
32758 H 55.25982608136913 22.480372578232647 73.67048401520216 H 0.0 **** 0.06
32759 H 56.38653556075994 23.303660037823164 74.77603584819366 H 0.0 **** 0.06
32760 H 55.44435779823432 21.903649948204986 75.3446167440934 H 0.0 **** 0.06
32761 C 7.420253141322547 4.863736639373997 7.904935707303139 C 0.0 **** -0.24
32762 H 6.603795355081502 4.757405991439327 8.618987660701038 H 0.0 **** 0.06
32763 H 8.182422241697552 4.110963029192533 8.109579186838033 H 0.0 **** 0.06
32764 H 7.85749506359727 5.858629863224621 7.999109986034199 H 0.0 **** 0.06
32765 H 7.0383136640080295 4.72952366261859 6.893286160637501 H 0.0 **** 0.06
32766 C 74.87493533084239 2.917861436628158 34.96190840276975 C 0.0 **** -0.24
32767 H 75.12764359513767 1.9286714063952672 34.58254280439067 H 0.0 **** 0.06
32768 H 74.40064951459635 3.4999667948906676 34.1708406923014 H 0.0 **** 0.06
32769 H 75.7823623064026 3.424356581523142 35.290673792148795 H 0.0 **** 0.06
32770 H 74.1883741750894 2.8195118041559795 35.802969564093814 H 0.0 **** 0.06
32771 C 21.401991577859178 7.058208278134117 92.87575561571353 C 0.0 **** -0.24
32772 H 20.755606388322803 6.289668110843081 93.30011507681519 H 0.0 **** 0.06
32773 H 21.609336613672042 7.816824294521382 93.63205954100457 H 0.0 **** 0.06
32774 H 20.903514156378435 7.520898088300726 92.02377137376425 H 0.0 **** 0.06
32775 H 22.33762630360542 6.605775364620172 92.54860763417759 H 0.0 **** 0.06
32776 C 24.399911231442754 18.397687441615137 87.23498675387802 C 0.0 **** -0.24
32777 H 24.41163658375116 19.42793463657992 87.59041882040083 H 0.0 **** 0.06
32778 H 24.90608153485323 18.339992814580583 86.27111139347758 H 0.0 **** 0.06
32779 H 23.367663874909386 18.064204345836405 87.12347350016691 H 0.0 **** 0.06
32780 H 24.912093072690304 17.759069982109988 87.95464725178513 H 0.0 **** 0.06
32781 C 22.382297284147384 22.436487639470386 6.441126096955845 C 0.0 **** -0.24
32782 H 21.64134964341618 22.977361316804746 5.853961809461207 H 0.0 **** 0.06
32783 H 23.08429162336283 21.939000813154422 5.771220442842639 H 0.0 **** 0.06
32784 H 21.881943158725594 21.69168750006108 7.060563153922342 H 0.0 **** 0.06
32785 H 22.922242445251925 23.135847088496405 7.07937159108387 H 0.0 **** 0.06
32786 C 84.31715222602777 86.52111334026972 10.984166764625414 C 0.0 **** -0.24
32787 H 83.48980789947612 87.15779907984574 11.29678848627681 H 0.0 **** 0.06
32788 H 84.18815519342652 86.24654645613737 9.937304063135883 H 0.0 **** 0.06
32789 H 84.33337619326436 85.62061646098346 11.597734088514187 H 0.0 **** 0.06
32790 H 85.25594265574193 87.06083645843137 11.106036306846093 H 0.0 **** 0.06
32791 C 97.98845998535654 30.61435835597183 48.38320828323788 C 0.0 **** -0.24
32792 H 98.94502987682205 31.10220141864386 48.19911086145356 H 0.0 **** 0.06
32793 H 97.6146434836619 30.90763688589942 49.36460254555351 H 0.0 **** 0.06
32794 H 98.12108119959169 29.53250630381251 48.353383432288865 H 0.0 **** 0.06
32795 H 97.2739512328979 30.915659924656723 47.61744636282799 H 0.0 **** 0.06
32796 C 56.47084096292028 14.552668621586406 2.3541716659278507 C 0.0 **** -0.24
32797 H 55.9344930306812 13.69324390756978 2.7573798332860093 H 0.0 **** 0.06
32798 H 55.97773100869257 14.894024269047605 1.444100999946869 H 0.0 **** 0.06
32799 H 57.497457162844434 14.266134887280288 2.126111747289926 H 0.0 **** 0.06
32800 H 56.473049139096986 15.356862554544136 3.0897510017003214 H 0.0 **** 0.06
32801 C 42.817280661212294 74.5220231200993 57.88471940575835 C 0.0 **** -0.24
32802 H 42.15301893153111 74.89175185207927 57.1038162533593 H 0.0 **** 0.06
32803 H 42.30051313578815 73.76245017854657 58.472190302190995 H 0.0 **** 0.06
32804 H 43.109204035899666 75.34686649993819 58.53431300674316 H 0.0 **** 0.06
32805 H 43.707315008470346 74.08608449664052 57.429678564134974 H 0.0 **** 0.06
32806 C 69.41360681182789 98.81865254671548 84.90675766931119 C 0.0 **** -0.24
32807 H 68.5373818276808 99.43932724261272 85.094963533234 H 0.0 **** 0.06
32808 H 69.2879122820595 97.85457762706959 85.39814152705488 H 0.0 **** 0.06
32809 H 70.30153152703741 99.31428708251336 85.30126231951442 H 0.0 **** 0.06
32810 H 69.52876480493825 98.6690487919664 83.83351629191155 H 0.0 **** 0.06
32811 C 86.06894960114738 57.2491144002862 38.046893361001075 C 0.0 **** -0.24
32812 H 86.95215821904375 56.61847285543436 38.14101794183233 H 0.0 **** 0.06
32813 H 85.22608194450271 56.77253723148164 38.54893730590824 H 0.0 **** 0.06
32814 H 85.83191255884958 57.38833864129615 36.99219350985815 H 0.0 **** 0.06
32815 H 86.26487579961768 58.2182751896216 38.50564168123314 H 0.0 **** 0.06
32816 C 81.00999308531118 16.4641718545289 72.68256875832776 C 0.0 **** -0.24
32817 H 81.23382601276143 15.880874907194709 71.78953336661897 H 0.0 **** 0.06
32818 H 79.95310093198708 16.73025877668971 72.68674544597062 H 0.0 **** 0.06
32819 H 81.61368641797867 17.37183599559367 72.68478440030182 H 0.0 **** 0.06
32820 H 81.23963381605881 15.872988030662583 73.56983795209464 H 0.0 **** 0.06
32821 C 86.7670483885193 102.67614779879452 67.79745741149412 C 0.0 **** -0.24
32822 H 86.73359290128178 101.84944710133439 68.50729643210212 H 0.0 **** 0.06
32823 H 86.52612278189281 103.6066977554593 68.31264905231899 H 0.0 **** 0.06
32824 H 86.04175031594576 102.50173852218904 67.00328249622203 H 0.0 **** 0.06
32825 H 87.766731589828 102.74717586027924 67.3687882539648 H 0.0 **** 0.06
32826 C 4.460735087831608 9.191604692480823 108.47425018481609 C 0.0 **** -0.24
32827 H 3.7865942489401903 9.530531725360362 107.68778002266546 H 0.0 **** 0.06
32828 H 4.287744586388499 9.777661114584319 109.37781809858559 H 0.0 **** 0.06
32829 H 5.492613147928324 9.322431090901205 108.14860951526741 H 0.0 **** 0.06
32830 H 4.276018000613391 8.13803041226842 108.68275328053188 H 0.0 **** 0.06
32831 C 57.072691028234146 65.28029115280458 71.60508851710654 C 0.0 **** -0.24
32832 H 56.266492284134245 64.6172080068975 71.91982346612599 H 0.0 **** 0.06
32833 H 56.68739599134355 66.00519075782506 70.88754962357893 H 0.0 **** 0.06
32834 H 57.864277135093374 64.69320851009138 71.13927509352402 H 0.0 **** 0.06
32835 H 57.47214150903699 65.80467384404017 72.4727006409197 H 0.0 **** 0.06
32836 C 29.110940722643903 20.545926401696875 68.00851400765424 C 0.0 **** -0.24
32837 H 29.6622944991434 19.73158692925034 68.47956073028973 H 0.0 **** 0.06
32838 H 29.532949248425837 21.500600825385987 68.32266569854386 H 0.0 **** 0.06
32839 H 28.064058621788206 20.495838914083976 68.30710707263648 H 0.0 **** 0.06
32840 H 29.184101393269174 20.454312792673022 66.9247916264207 H 0.0 **** 0.06
32841 C 64.60588068374922 8.151132929375535 101.67657190418396 C 0.0 **** -0.24
32842 H 64.27729425108788 7.181801943274095 101.30211214424577 H 0.0 **** 0.06
32843 H 64.41584144952147 8.915331057111672 100.92258246890958 H 0.0 **** 0.06
32844 H 65.6737165728401 8.113533473541736 101.89453883215415 H 0.0 **** 0.06
32845 H 64.05714747289285 8.39307133028936 102.58667706116557 H 0.0 **** 0.06
32846 C 14.466950519744415 6.673066353167627 105.82497707966911 C 0.0 **** -0.24
32847 H 15.300401394227663 7.375775865833106 105.79044029634494 H 0.0 **** 0.06
32848 H 14.745449103206568 5.754992212805291 105.30626404427667 H 0.0 **** 0.06
32849 H 13.598003420384998 7.1169195312099305 105.33966892878786 H 0.0 **** 0.06
32850 H 14.227301734803575 6.445867824035929 106.86383512039458 H 0.0 **** 0.06
32851 C 72.9418027355819 70.2788035604927 58.487654578069396 C 0.0 **** -0.24
32852 H 72.72308426953117 70.90303815552697 57.62165971541981 H 0.0 **** 0.06
32853 H 72.14502564287857 70.38536075389396 59.22370454552254 H 0.0 **** 0.06
32854 H 73.88925792203285 70.59004366952762 58.92971123637699 H 0.0 **** 0.06
32855 H 73.01223922108926 69.2371020230378 58.17592986203175 H 0.0 **** 0.06
32856 C 51.06854115506898 50.87909230219435 3.06038685900819 C 0.0 **** -0.24
32857 H 50.73788632139271 50.201969312640415 3.8481898723488825 H 0.0 **** 0.06
32858 H 51.99227157077943 50.499904838909 2.620837285838519 H 0.0 **** 0.06
32859 H 51.24590944232388 51.86835252679151 3.482399222423439 H 0.0 **** 0.06
32860 H 50.29935688570309 50.943932890398116 2.29171207755644 H 0.0 **** 0.06
32861 C 110.19373246604233 107.40786463773145 35.350174348306226 C 0.0 **** -0.24
32862 H 110.54181264428271 106.3786359264791 35.43486884764596 H 0.0 **** 0.06
32863 H 110.95394828230819 108.08261925191738 35.7426062672243 H 0.0 **** 0.06
32864 H 109.27182388047747 107.5271216014846 35.91866359955544 H 0.0 **** 0.06
32865 H 110.00653632543167 107.641729521773 34.3020056751773 H 0.0 **** 0.06
32866 C 65.76408388632211 101.5218119174048 71.20864145828205 C 0.0 **** -0.24
32867 H 66.71583815278416 101.95179601966453 71.52278519215776 H 0.0 **** 0.06
32868 H 65.79518466595641 101.3119106571726 70.13966254543826 H 0.0 **** 0.06
32869 H 64.9595895226596 102.22769767388012 71.41804993836138 H 0.0 **** 0.06
32870 H 65.58592186097724 100.5959368796699 71.75578627607709 H 0.0 **** 0.06
32871 C 39.91160858317042 109.47747357993237 28.081558887407652 C 0.0 **** -0.24
32872 H 40.98231078360739 109.65881042484804 27.975740183194432 H 0.0 **** 0.06
32873 H 39.539637639858256 108.9731124811232 27.189207343483986 H 0.0 **** 0.06
32874 H 39.39347985790306 110.42840427762505 28.20394820096695 H 0.0 **** 0.06
32875 H 39.73445433624801 108.85091442902726 28.95463886128705 H 0.0 **** 0.06
32876 C 35.0457448738961 6.289766725728917 52.566959729410904 C 0.0 **** -0.24
32877 H 34.389504706100695 5.583022640026931 52.0588383044503 H 0.0 **** 0.06
32878 H 36.08365055115053 6.05404781136661 52.33273311102444 H 0.0 **** 0.06
32879 H 34.89064475924985 6.219038994344222 53.64392319897163 H 0.0 **** 0.06
32880 H 34.8174403936259 7.302179271873779 52.232952752467064 H 0.0 **** 0.06
32881 C 39.407319722042445 32.13067455207078 50.755500399309085 C 0.0 **** -0.24
32882 H 39.17093350194377 33.185821892628354 50.6174446676103 H 0.0 **** 0.06
32883 H 39.58737025698422 31.670120062374735 49.78334600076806 H 0.0 **** 0.06
32884 H 38.570706961982886 31.6319994285164 51.24525846269191 H 0.0 **** 0.06
32885 H 40.29971293445101 32.03576029255508 51.37403282549445 H 0.0 **** 0.06
32886 C 29.13225157300269 60.914063399681424 15.21820605875945 C 0.0 **** -0.24
32887 H 29.821584481816444 61.69850554513981 14.903589682929976 H 0.0 **** 0.06
32888 H 29.634987336209207 59.94831387709331 15.169818804115124 H 0.0 **** 0.06
32889 H 28.2655633745473 60.906972304877854 14.55774335732643 H 0.0 **** 0.06
32890 H 28.807862362714815 61.10518336532475 16.24089052008992 H 0.0 **** 0.06
32891 C 89.5136569868951 56.102976600381965 59.15412548666791 C 0.0 **** -0.24
32892 H 90.13711646101983 56.93581382713279 58.8307354601923 H 0.0 **** 0.06
32893 H 90.12850380155675 55.208836154961006 59.260459990757624 H 0.0 **** 0.06
32894 H 88.73440168440159 55.92282934780695 58.41304660268261 H 0.0 **** 0.06
32895 H 89.05481077526723 56.343661824007256 60.112870232038404 H 0.0 **** 0.06
32896 C 1.3207493207894743 39.25881360635688 98.13648367808378 C 0.0 **** -0.24
32897 H 2.067024827039347 39.344405909631945 98.9267871608601 H 0.0 **** 0.06
32898 H 1.0533906354661724 40.2546453601617 97.78057460223692 H 0.0 **** 0.06
32899 H 0.43271856364407313 38.761409192532824 98.52725085394997 H 0.0 **** 0.06
32900 H 1.7312116035178917 38.676644812563524 97.31219193413693 H 0.0 **** 0.06
32901 C 3.8829232556058173 52.584896518606456 36.20545784346412 C 0.0 **** -0.24
32902 H 4.921750766335094 52.42540524543725 35.91470069279096 H 0.0 **** 0.06
32903 H 3.4125819765087613 51.625039237725105 36.41563097157044 H 0.0 **** 0.06
32904 H 3.3510466446838336 53.08119339700028 35.39281678754931 H 0.0 **** 0.06
32905 H 3.848235005234244 53.21043357745401 37.097222850116935 H 0.0 **** 0.06
32906 C 107.19910150450343 57.32839657357301 84.3388442889761 C 0.0 **** -0.24
32907 H 107.08440946942082 58.412367338399875 84.33554995301407 H 0.0 **** 0.06
32908 H 106.68705657059684 56.90747443699868 83.47251735176225 H 0.0 **** 0.06
32909 H 106.7660723619527 56.91937893871629 85.25094899765598 H 0.0 **** 0.06
32910 H 108.2584364777342 57.074628342687284 84.29340356956298 H 0.0 **** 0.06
32911 C 10.948713533002461 80.32806659041665 65.20014848110141 C 0.0 **** -0.24
32912 H 11.07144433845582 79.34052718092522 65.64430247364366 H 0.0 **** 0.06
32913 H 10.423764916829853 80.97776946308011 65.90044546047945 H 0.0 **** 0.06
32914 H 10.371391578646708 80.24411055865016 64.27976353711594 H 0.0 **** 0.06
32915 H 11.928553749724585 80.75031251217317 64.97738794168554 H 0.0 **** 0.06
32916 C 0.22537628452597147 19.52228497004029 109.23934178731426 C 0.0 **** -0.24
32917 H 0.9918370191137695 20.121320366141788 108.74761801516615 H 0.0 **** 0.06
32918 H 0.6917409413557127 18.674556769966983 109.74121291915995 H 0.0 **** 0.06
32919 H -0.4847163658518827 19.159050229714296 108.49634401556412 H 0.0 **** 0.06
32920 H -0.2989745681021194 20.135483750800972 109.97306737028174 H 0.0 **** 0.06
32921 C 81.98781267737886 46.11355480775694 108.31444054206412 C 0.0 **** -0.24
32922 H 83.05141840568442 45.94158352659525 108.47939041868999 H 0.0 **** 0.06
32923 H 81.62446974441643 46.8520074540462 109.030102755988 H 0.0 **** 0.06
32924 H 81.44483176998342 45.17825241760306 108.44778171941175 H 0.0 **** 0.06
32925 H 81.83275128594035 46.48224616343799 107.30025742095185 H 0.0 **** 0.06
32926 C 79.31253752258681 91.0921090598286 56.26016539661913 C 0.0 **** -0.24
32927 H 79.15485438996518 90.85813087574235 55.20726512775127 H 0.0 **** 0.06
32928 H 78.36120056507605 91.03948123065211 56.78998617549712 H 0.0 **** 0.06
32929 H 79.72403531199757 92.09764786139857 56.350862959417185 H 0.0 **** 0.06
32930 H 80.008920876829 90.3738722189546 56.69144341760153 H 0.0 **** 0.06
32931 C 103.23125559552392 109.61031580555601 2.9377581075248145 C 0.0 **** -0.24
32932 H 102.76146216899383 110.47537012788314 2.4687198001203114 H 0.0 **** 0.06
32933 H 102.45884986274535 108.93775469259134 3.3141007569578846 H 0.0 **** 0.06
32934 H 103.85864727468908 109.9418940401608 3.765229131545368 H 0.0 **** 0.06
32935 H 103.84281644530944 109.0864160898847 2.20363883122684 H 0.0 **** 0.06
32936 C 3.341269282548655 52.84434906071422 20.859617989061377 C 0.0 **** -0.24
32937 H 2.805422928308179 51.89664741959143 20.922682030896283 H 0.0 **** 0.06
32938 H 2.784132825398375 53.61262592983567 21.39591115536649 H 0.0 **** 0.06
32939 H 3.445857761029215 53.133339618680026 19.814494374008206 H 0.0 **** 0.06
32940 H 4.329575922106992 52.73212335041734 21.306769157657698 H 0.0 **** 0.06
32941 C 5.972606300274709 1.847224135989478 39.827384556525004 C 0.0 **** -0.24
32942 H 5.017265979590247 1.356816538280981 39.63544944337707 H 0.0 **** 0.06
32943 H 6.440398158349874 1.4001117951873425 40.70497164849138 H 0.0 **** 0.06
32944 H 5.805426289156992 2.909389098935719 40.0058506924899 H 0.0 **** 0.06
32945 H 6.625216612935841 1.7218677082517502 38.963179548539046 H 0.0 **** 0.06
32946 C 49.49365073067952 45.766419193440264 76.41456767600357 C 0.0 **** -0.24
32947 H 49.33892986214232 46.52495357063258 75.64831921751096 H 0.0 **** 0.06
32948 H 48.56089376938314 45.59816193834968 76.95265286251745 H 0.0 **** 0.06
32949 H 50.2593017322431 46.1053906613837 77.11203494650837 H 0.0 **** 0.06
32950 H 49.81637682276664 44.83629638857554 75.94591726266088 H 0.0 **** 0.06
32951 C 17.784297170241132 37.34004892904012 0.6148263335381854 C 0.0 **** -0.24
32952 H 16.789820002144097 37.7793314782288 0.5442949442117353 H 0.0 **** 0.06
32953 H 18.343870894821265 37.55819958616125 -0.2951881203885689 H 0.0 **** 0.06
32954 H 17.697010016807894 36.259642144950504 0.7365758587196245 H 0.0 **** 0.06
32955 H 18.307979410286265 37.76111769331821 1.4732392613831946 H 0.0 **** 0.06
32956 C 63.33231289828501 94.00507031079333 82.352451288613 C 0.0 **** -0.24
32957 H 62.51473925195012 94.55651130725462 82.81702841273056 H 0.0 **** 0.06
32958 H 63.07567585308061 93.77630901268626 81.31869340384759 H 0.0 **** 0.06
32959 H 63.50177546006353 93.07768592532929 82.89927974193171 H 0.0 **** 0.06
32960 H 64.23824718311289 94.61088113436415 82.37663929743013 H 0.0 **** 0.06
32961 C 89.53033110519097 35.04385495119773 11.918691057121634 C 0.0 **** -0.24
32962 H 89.34089732822457 34.14597970098121 12.505944453972575 H 0.0 **** 0.06
32963 H 88.68437396239665 35.22999810332274 11.257015176105654 H 0.0 **** 0.06
32964 H 90.4333361461529 34.904056749780416 11.322976210987989 H 0.0 **** 0.06
32965 H 89.6648373309184 35.89346777063465 12.58747638821501 H 0.0 **** 0.06
32966 C 16.290025049659825 28.223785944955438 89.38566445421125 C 0.0 **** -0.24
32967 H 16.963916418520263 28.71230432273859 90.08872198912715 H 0.0 **** 0.06
32968 H 15.677634957718844 28.975682657546656 88.88756460545088 H 0.0 **** 0.06
32969 H 15.645611519465124 27.52873637398946 89.92477304526346 H 0.0 **** 0.06
32970 H 16.871572262567973 27.6780581361582 88.64333186168699 H 0.0 **** 0.06
32971 C 58.82323494780981 79.7067678237213 54.873476344345605 C 0.0 **** -0.24
32972 H 58.462227356149654 78.79201559406975 54.40446615584303 H 0.0 **** 0.06
32973 H 59.45395506702879 80.25157112032753 54.17063478591738 H 0.0 **** 0.06
32974 H 59.40286117235874 79.45507455363908 55.76197603586738 H 0.0 **** 0.06
32975 H 57.97446417967981 80.3289738837638 55.157427991163466 H 0.0 **** 0.06
32976 C 94.98587233786034 53.68653954278159 107.18603254249057 C 0.0 **** -0.24
32977 H 94.68852041917182 52.77686942120738 106.66463842915563 H 0.0 **** 0.06
32978 H 94.77761013653739 54.55104397383127 106.55449335098979 H 0.0 **** 0.06
32979 H 96.05277100432454 53.64629041533442 107.40797403866162 H 0.0 **** 0.06
32980 H 94.42398927673793 53.77239258793588 108.11635368924014 H 0.0 **** 0.06
32981 C 46.34237337151444 94.50645493547398 103.50240838377528 C 0.0 **** -0.24
32982 H 46.72305409771252 94.73351789711211 104.4982524136667 H 0.0 **** 0.06
32983 H 47.11864783931469 94.70367441768565 102.76256772766519 H 0.0 **** 0.06
32984 H 45.474260098556556 95.13304111712546 103.29423079665355 H 0.0 **** 0.06
32985 H 46.051832491073526 93.45697707856402 103.45500633178268 H 0.0 **** 0.06
32986 C 47.85163423986529 109.40127493563715 58.20127062293641 C 0.0 **** -0.24
32987 H 48.22697414595552 109.37879952730911 57.1776766632304 H 0.0 **** 0.06
32988 H 48.67829035518136 109.59041040259602 58.88600207997813 H 0.0 **** 0.06
32989 H 47.39223421271214 108.44313683058259 58.440301214000655 H 0.0 **** 0.06
32990 H 47.109915974774054 110.1946161906893 58.297978634888615 H 0.0 **** 0.06
32991 C 61.12360238237129 16.087113034707727 9.321764903470466 C 0.0 **** -0.24
32992 H 60.66851439818869 16.726264863805113 10.07881947907208 H 0.0 **** 0.06
32993 H 60.40621715770391 15.328302092854273 9.008469275935028 H 0.0 **** 0.06
32994 H 62.00627954182373 15.602992591427324 9.73950543914492 H 0.0 **** 0.06
32995 H 61.41342525042846 16.69194223369314 8.462478524359852 H 0.0 **** 0.06
32996 C 61.09664311013914 38.86256102356077 86.65821998949784 C 0.0 **** -0.24
32997 H 61.78369231454103 38.972820263499784 85.81854500469572 H 0.0 **** 0.06
32998 H 60.27972839923464 39.57722603676302 86.55392210073586 H 0.0 **** 0.06
32999 H 61.62773552549787 39.05141405638852 87.5903036927094 H 0.0 **** 0.06
33000 H 60.69355890129786 37.849752739285066 86.66700880884301 H 0.0 **** 0.06
33001 C 98.35986075022163 59.30943376472129 0.809549510806022 C 0.0 **** -0.24
33002 H 99.33543623639693 59.67129016011302 0.4858194985863804 H 0.0 **** 0.06
33003 H 98.48051743019056 58.36390918662448 1.339721226120119 H 0.0 **** 0.06
33004 H 97.72111564017126 59.15953449343891 -0.06130332533074068 H 0.0 **** 0.06
33005 H 97.90275089124097 60.04295710283253 1.4725983381990346 H 0.0 **** 0.06
33006 C 61.333322769925644 5.1499761288264665 43.621433061613686 C 0.0 **** -0.24
33007 H 61.42220424211905 5.327359072844558 42.54904312725108 H 0.0 **** 0.06
33008 H 60.27955033837583 5.074509373618042 43.890827184461614 H 0.0 **** 0.06
33009 H 61.78995389809262 5.975855815176857 44.16596537294146 H 0.0 **** 0.06
33010 H 61.841685671654886 4.219949653932815 43.877893001522125 H 0.0 **** 0.06
33011 C 106.34917677087094 28.58700522140365 83.95243161706085 C 0.0 **** -0.24
33012 H 107.27895036632651 28.956698729106648 84.38495850621001 H 0.0 **** 0.06
33013 H 106.57232971952004 27.80985041639933 83.22170124010162 H 0.0 **** 0.06
33014 H 105.82485045789849 29.408335797086274 83.46301994865155 H 0.0 **** 0.06
33015 H 105.72146850223896 28.173933502142553 84.74279791028974 H 0.0 **** 0.06
33016 C 84.83348388950803 43.35515517609382 7.796180604226393 C 0.0 **** -0.24
33017 H 85.36031653406022 43.65241265996115 6.889912409278537 H 0.0 **** 0.06
33018 H 83.90980694166164 42.84262736527358 7.527500741872402 H 0.0 **** 0.06
33019 H 84.59918738419476 44.24071838497738 8.387637047632637 H 0.0 **** 0.06
33020 H 85.46535920119479 42.68501872714411 8.380332584857982 H 0.0 **** 0.06
33021 C 76.71597560809472 19.76940908069958 65.70924503457506 C 0.0 **** -0.24
33022 H 76.44773461198744 19.560853211670864 64.67359212677927 H 0.0 **** 0.06
33023 H 77.28541558736049 18.93160952230801 66.11349225637123 H 0.0 **** 0.06
33024 H 75.80867574103337 19.909233213155954 66.2976436562137 H 0.0 **** 0.06
33025 H 77.32045554274426 20.675213399919407 65.75361014207694 H 0.0 **** 0.06
33026 C 49.64705527901339 25.04538504206033 36.51137329432284 C 0.0 **** -0.24
33027 H 49.74800757282628 24.181663375256193 35.85437463683304 H 0.0 **** 0.06
33028 H 48.767917515955446 25.621229688102943 36.21963960806556 H 0.0 **** 0.06
33029 H 50.535514022847906 25.6709608935314 36.42793694502257 H 0.0 **** 0.06
33030 H 49.53452517786167 24.708037406514364 37.54093737623724 H 0.0 **** 0.06
33031 C 34.16940701911006 57.692710647542015 91.45697421137447 C 0.0 **** -0.24
33032 H 35.08549277134223 58.280390044773355 91.39807132725764 H 0.0 **** 0.06
33033 H 34.09150287982428 57.239199656458766 92.44512574933134 H 0.0 **** 0.06
33034 H 34.19183769375314 56.90866831217829 90.69868843439087 H 0.0 **** 0.06
33035 H 33.31033744635586 58.33963149814332 91.28463292556484 H 0.0 **** 0.06
33036 C 104.4158051190883 33.569480583286456 66.03454658457946 C 0.0 **** -0.24
33037 H 104.54351972594635 34.08915010269095 66.98470517933515 H 0.0 **** 0.06
33038 H 103.99304111197358 32.58053406552229 66.21571276420894 H 0.0 **** 0.06
33039 H 105.3834970490353 33.46718013404502 65.54459697459464 H 0.0 **** 0.06
33040 H 103.74316220974845 34.1408305001128 65.3956103812834 H 0.0 **** 0.06
33041 C 23.305527232326114 60.09922556976865 6.069801944103119 C 0.0 **** -0.24
33042 H 23.063764435201918 59.2275284096211 6.676497466037063 H 0.0 **** 0.06
33043 H 23.304530224368392 59.81982840485192 5.015738372568421 H 0.0 **** 0.06
33044 H 24.29227626085438 60.47184751692109 6.346540126092748 H 0.0 **** 0.06
33045 H 22.562731634439416 60.87816435026552 6.2398336251152955 H 0.0 **** 0.06
33046 C 29.392544305580714 59.5785157473731 71.30158772864678 C 0.0 **** -0.24
33047 H 28.687553758853284 60.408835473501796 71.26266208245157 H 0.0 **** 0.06
33048 H 28.866087005036263 58.66976583219575 71.59325368766486 H 0.0 **** 0.06
33049 H 30.172328033367307 59.79849815693059 72.0310415188462 H 0.0 **** 0.06
33050 H 29.843062130740122 59.438809063019534 70.31886423257006 H 0.0 **** 0.06
33051 C 3.489739480466028 16.429981857021986 50.64601554859733 C 0.0 **** -0.24
33052 H 4.396100864465609 15.868241404876926 50.87317510719919 H 0.0 **** 0.06
33053 H 2.6822770401516607 15.73689319384296 50.40939294386453 H 0.0 **** 0.06
33054 H 3.670823667595613 17.082943220129437 49.79258970165189 H 0.0 **** 0.06
33055 H 3.210279644175003 17.031204950390418 51.51098069531889 H 0.0 **** 0.06
33056 C 90.61627135498924 68.34573356239974 56.24245358948849 C 0.0 **** -0.24
33057 H 90.95347479471917 67.64087290448822 57.002301610446054 H 0.0 **** 0.06
33058 H 90.97621381440422 68.02473674383049 55.264218815789874 H 0.0 **** 0.06
33059 H 91.00954955954091 69.33717351042554 56.4668857829182 H 0.0 **** 0.06
33060 H 89.5267816299033 68.3804865386407 56.23652840549625 H 0.0 **** 0.06
33061 C 55.36646880806222 95.56440693325226 4.403422335569914 C 0.0 **** -0.24
33062 H 55.79218166262166 96.27039236232645 3.689484709380025 H 0.0 **** 0.06
33063 H 54.299917079929 95.44784948676971 4.2058353723089255 H 0.0 **** 0.06
33064 H 55.51027860380623 95.94111988515652 5.415607978911126 H 0.0 **** 0.06
33065 H 55.86231617201338 94.599865941085 4.299591985111377 H 0.0 **** 0.06
33066 C 78.94987402208046 108.37956676817291 97.95546150849111 C 0.0 **** -0.24
33067 H 78.00605459122806 108.04418335579484 98.38766479363655 H 0.0 **** 0.06
33068 H 79.41072932951327 107.5567678125872 97.40853645264956 H 0.0 **** 0.06
33069 H 79.61753201587676 108.70695922202214 98.75218774586718 H 0.0 **** 0.06
33070 H 78.76244930714414 109.2095093149245 97.27436528684467 H 0.0 **** 0.06
33071 C 19.079386550870453 108.07564071428389 95.19030745241832 C 0.0 **** -0.24
33072 H 19.584689084153638 107.11284526137787 95.11171981616985 H 0.0 **** 0.06
33073 H 18.013563359673014 107.91314361418009 95.34943108154994 H 0.0 **** 0.06
33074 H 19.227838978272757 108.63944779990489 94.27024381609527 H 0.0 **** 0.06
33075 H 19.491945704178107 108.63434317351448 96.02995452206187 H 0.0 **** 0.06
33076 C 10.888908331821227 75.7592295062696 22.657207301904066 C 0.0 **** -0.24
33077 H 10.334580175969819 75.01406002277207 22.086631742628953 H 0.0 **** 0.06
33078 H 11.104471674402077 76.61726824479624 22.020369246931182 H 0.0 **** 0.06
33079 H 11.823976419825271 75.32347042502141 23.009330053278916 H 0.0 **** 0.06
33080 H 10.292900228696197 76.07926818860255 23.511162367248744 H 0.0 **** 0.06
33081 C 69.84091323776032 27.42996921248502 52.83734734312753 C 0.0 **** -0.24
33082 H 70.38778506125406 26.797325727882843 53.53675436386544 H 0.0 **** 0.06
33083 H 70.36330146807886 28.380921325625977 52.72250195982318 H 0.0 **** 0.06
33084 H 68.83682045899855 27.611584027282454 53.220494151410435 H 0.0 **** 0.06
33085 H 69.77607505308526 26.932167700747563 51.870262882347845 H 0.0 **** 0.06
33086 C 66.66730697403783 84.51975621554453 12.678382630099094 C 0.0 **** -0.24
33087 H 67.00080990303802 83.4898441340016 12.545903566200778 H 0.0 **** 0.06
33088 H 66.94696981062826 84.86637030295242 13.673303787763487 H 0.0 **** 0.06
33089 H 65.58400978408342 84.56739126364181 12.566638092978621 H 0.0 **** 0.06
33090 H 67.13852191791236 85.1528877919975 11.927038114632111 H 0.0 **** 0.06
33091 C 99.72997088517752 6.424283473757981 54.688652951040886 C 0.0 **** -0.24
33092 H 98.94548698540132 6.5386366125353135 53.941339064193194 H 0.0 **** 0.06
33093 H 99.39460854436604 5.736642550693773 55.465600076930514 H 0.0 **** 0.06
33094 H 99.95329543009257 7.394598355128522 55.13234193846885 H 0.0 **** 0.06
33095 H 100.62825305698425 6.027752697521436 54.21404439615845 H 0.0 **** 0.06
33096 C 107.04753173815836 25.8661157130813 85.95520017878005 C 0.0 **** -0.24
33097 H 106.1160855604471 26.414342090532145 86.09649982223777 H 0.0 **** 0.06
33098 H 107.61865931296876 25.874721730455192 86.88348728698901 H 0.0 **** 0.06
33099 H 107.63045811799131 26.338082587672183 85.1643273486672 H 0.0 **** 0.06
33100 H 106.82422730784329 24.835962572255227 85.67566051083668 H 0.0 **** 0.06
33101 C 90.14202556840411 42.128975980521545 90.92746905754615 C 0.0 **** -0.24
33102 H 90.11532815019626 41.872473175301224 89.8676490859848 H 0.0 **** 0.06
33103 H 90.1039819794621 41.21727274645171 91.52261825503808 H 0.0 **** 0.06
33104 H 89.28674171316823 42.75989979989396 91.16991782674666 H 0.0 **** 0.06
33105 H 91.06421437511005 42.66860645166511 91.14571559157838 H 0.0 **** 0.06
33106 C 38.036072386239034 30.854646949594382 84.43438425957223 C 0.0 **** -0.24
33107 H 37.82167859116718 31.91782422062724 84.54219480772318 H 0.0 **** 0.06
33108 H 37.19340689056543 30.27467743923748 84.81218846243905 H 0.0 **** 0.06
33109 H 38.93219721263886 30.60563454662156 85.00110090442013 H 0.0 **** 0.06
33110 H 38.19462975139549 30.620570891881698 83.38147366717567 H 0.0 **** 0.06
33111 C 73.02211796502756 75.09473774763217 100.20552528468346 C 0.0 **** -0.24
33112 H 73.48977255178035 74.12063846019288 100.3464879187751 H 0.0 **** 0.06
33113 H 72.15276494110317 75.17804647837076 100.8576768795192 H 0.0 **** 0.06
33114 H 72.70818654232508 75.19992722537341 99.166991717207 H 0.0 **** 0.06
33115 H 73.73645214541456 75.88043466359255 100.45038593683495 H 0.0 **** 0.06
33116 C 47.76442729403746 83.29492293005505 32.980949197534244 C 0.0 **** -0.24
33117 H 47.866685917926276 83.81178493931533 32.0259488594493 H 0.0 **** 0.06
33118 H 48.397395675239466 82.40736268815648 32.98284470051192 H 0.0 **** 0.06
33119 H 46.72476230337452 83.00147379622778 33.12619053202056 H 0.0 **** 0.06
33120 H 48.070194112052604 83.96107839032334 33.78836318143473 H 0.0 **** 0.06
33121 C 61.201220898755196 90.11038625622103 33.83992914387005 C 0.0 **** -0.24
33122 H 61.67865814755439 90.33092191532239 32.885910087697994 H 0.0 **** 0.06
33123 H 60.31544083234223 90.73476240698488 33.95547053456784 H 0.0 **** 0.06
33124 H 61.899641721465656 90.31508054557892 34.65106742472892 H 0.0 **** 0.06
33125 H 60.91184726486506 89.05969977326265 33.866112335153446 H 0.0 **** 0.06
33126 C 107.84015277500981 63.658470786357796 23.412289403959136 C 0.0 **** -0.24
33127 H 107.95103803557453 64.21377925057001 22.48070702930181 H 0.0 **** 0.06
33128 H 108.65964959233366 63.91020124839237 24.084889161624773 H 0.0 **** 0.06
33129 H 107.85853671548756 62.588966753799895 23.200145723591504 H 0.0 **** 0.06
33130 H 106.89029626427006 63.919668971098105 23.880068099190794 H 0.0 **** 0.06
33131 C 95.02098087557283 57.48075356651355 102.0704303692182 C 0.0 **** -0.24
33132 H 95.1563365422017 56.517259727219745 102.56353105038512 H 0.0 **** 0.06
33133 H 94.54313203244277 57.3292535102278 101.10310111125666 H 0.0 **** 0.06
33134 H 95.99258037640982 57.95374926500574 101.9265025115215 H 0.0 **** 0.06
33135 H 94.39327364000417 58.120423399354614 102.6902059928067 H 0.0 **** 0.06
33136 C 81.80497790214793 22.330131018234738 33.176915330951346 C 0.0 **** -0.24
33137 H 82.3789175657476 22.984421739483423 33.83368826293621 H 0.0 **** 0.06
33138 H 82.21169376835326 21.319545022343334 33.22606746123571 H 0.0 **** 0.06
33139 H 81.86766648999577 22.69860905973377 32.153019435866334 H 0.0 **** 0.06
33140 H 80.76321272396922 22.319050611152534 33.496957915509746 H 0.0 **** 0.06
33141 C 40.3572164445016 50.583592590000876 54.32640606566686 C 0.0 **** -0.24
33142 H 39.90424710756986 50.087082776896494 55.18513394344135 H 0.0 **** 0.06
33143 H 39.578059793487625 50.86972467201605 53.619791542350555 H 0.0 **** 0.06
33144 H 41.05680240868787 49.90341575154312 53.841610616118516 H 0.0 **** 0.06
33145 H 40.88921777654966 51.47446967375487 54.66145588064969 H 0.0 **** 0.06
33146 C 45.64820653590644 9.619761747521522 59.22525202452641 C 0.0 **** -0.24
33147 H 44.92598339597632 9.449630860779507 58.42642414683297 H 0.0 **** 0.06
33148 H 45.145889452090444 10.076580132369827 60.07798893913349 H 0.0 **** 0.06
33149 H 46.435166926547936 10.283527287625816 58.86817871632559 H 0.0 **** 0.06
33150 H 46.08514513409517 8.667283778279568 59.527717208202375 H 0.0 **** 0.06
33151 C 87.87094762589437 72.88823697798205 20.5293916671925 C 0.0 **** -0.24
33152 H 87.9787327875709 73.79750276988209 19.93845699702672 H 0.0 **** 0.06
33153 H 87.64990230181061 72.0498717372024 19.867820443168853 H 0.0 **** 0.06
33154 H 87.05714229845601 73.01296354387665 21.242804478105256 H 0.0 **** 0.06
33155 H 88.79937237797049 72.69240572805569 21.06645718108473 H 0.0 **** 0.06
33156 C 82.99244595922565 64.1929123716258 58.26809947966558 C 0.0 **** -0.24
33157 H 82.52751711209376 65.1714493514335 58.14546053896976 H 0.0 **** 0.06
33158 H 82.44610810691013 63.622424669361806 59.0190831380682 H 0.0 **** 0.06
33159 H 84.02675360726187 64.32011561109675 58.58990194799719 H 0.0 **** 0.06
33160 H 82.97122987803405 63.65871712560167 57.31869545472924 H 0.0 **** 0.06
33161 C 70.88411481760033 71.27661643792017 25.488636537401618 C 0.0 **** -0.24
33162 H 69.79336293786714 71.29966221089087 25.484269506423118 H 0.0 **** 0.06
33163 H 71.22437573366429 70.24065836163177 25.48615667550854 H 0.0 **** 0.06
33164 H 71.25407738698874 71.77983776658851 26.38207133347433 H 0.0 **** 0.06
33165 H 71.26140401287718 71.78581911575799 24.60152929896182 H 0.0 **** 0.06
33166 C 30.93229923138219 28.95998542609499 41.35791676512502 C 0.0 **** -0.24
33167 H 30.152636830258004 29.4756673543682 41.91825273985775 H 0.0 **** 0.06
33168 H 31.247579686287196 28.073791648089752 41.90878023173785 H 0.0 **** 0.06
33169 H 31.78416877512828 29.627045596898853 41.22364178674366 H 0.0 **** 0.06
33170 H 30.54434475535541 28.66424450085185 40.38384372091991 H 0.0 **** 0.06
33171 C 5.892391699656859 35.144819467860856 61.980764480240566 C 0.0 **** -0.24
33172 H 6.813336225917007 35.665115141979754 62.24416404178868 H 0.0 **** 0.06
33173 H 5.406143244117795 34.78480279363227 62.887022792147434 H 0.0 **** 0.06
33174 H 6.125573411009039 34.300246225817745 61.331980167045344 H 0.0 **** 0.06
33175 H 5.225037019204672 35.83013801409052 61.457728174614886 H 0.0 **** 0.06
33176 C 106.19849193172344 26.54584152670475 32.53181818689055 C 0.0 **** -0.24
33177 H 106.70753685585848 25.59827626576987 32.353933109441726 H 0.0 **** 0.06
33178 H 105.17917324818774 26.486374390239803 32.152015939387184 H 0.0 **** 0.06
33179 H 106.73174969792709 27.34590567693124 32.018908629614 H 0.0 **** 0.06
33180 H 106.17706658051252 26.750922670457385 33.602316402561 H 0.0 **** 0.06
33181 C 109.48081495085182 90.15268378741493 40.663733394794406 C 0.0 **** -0.24
33182 H 110.24653084107743 90.80956101549786 41.0758561822046 H 0.0 **** 0.06
33183 H 108.71521862737725 89.9689243008942 41.41836477255029 H 0.0 **** 0.06
33184 H 109.9338261908427 89.20693900090681 40.367062996779055 H 0.0 **** 0.06
33185 H 109.0267727494078 90.62660894432373 39.792953627743145 H 0.0 **** 0.06
33186 C 60.14389003964317 93.72166385083477 32.03656496431279 C 0.0 **** -0.24
33187 H 59.62204552494268 93.37754541082323 31.143154882299854 H 0.0 **** 0.06
33188 H 59.73179631117853 93.22110700318923 32.91243213678731 H 0.0 **** 0.06
33189 H 60.014389744579944 94.79922597742856 32.13865453413835 H 0.0 **** 0.06
33190 H 61.204710425714836 93.49021775759887 31.949006587554393 H 0.0 **** 0.06
33191 C 66.88667740096663 72.39015160505335 76.20816082182853 C 0.0 **** -0.24
33192 H 66.30522061051124 73.11177892516037 76.78354229003378 H 0.0 **** 0.06
33193 H 67.17761068145083 71.56175598914433 76.85456881444509 H 0.0 **** 0.06
33194 H 67.77889605021704 72.87510828136482 75.8131423484657 H 0.0 **** 0.06
33195 H 66.28268835775667 72.01246297060965 75.38325764354704 H 0.0 **** 0.06
33196 C 13.861624086244262 28.372266862000828 22.139747761942687 C 0.0 **** -0.24
33197 H 13.511974058930562 28.97563091551109 21.302429200053837 H 0.0 **** 0.06
33198 H 13.115079084143787 27.612972305122327 22.375824322176726 H 0.0 **** 0.06
33199 H 14.016972532898137 29.01192349211729 23.00811631849544 H 0.0 **** 0.06
33200 H 14.799997881205059 27.887962397677 21.871023928533077 H 0.0 **** 0.06
33201 C 11.267328637871401 62.66233484244998 82.95769903599052 C 0.0 **** -0.24
33202 H 10.471126155890488 62.18331690131154 83.52767461432308 H 0.0 **** 0.06
33203 H 12.173907838165377 62.06008150707652 83.0239625237912 H 0.0 **** 0.06
33204 H 11.460496327179186 63.65483294236964 83.36595697457619 H 0.0 **** 0.06
33205 H 10.965137428187973 62.75154323375719 81.91492821054436 H 0.0 **** 0.06
33206 C 32.695261447824294 50.90692011654164 25.177085189459337 C 0.0 **** -0.24
33207 H 31.733951172155408 50.40501744972542 25.066464184788884 H 0.0 **** 0.06
33208 H 32.71930114396598 51.7906116764818 24.539838749691405 H 0.0 **** 0.06
33209 H 33.49556915280155 50.22607488638789 24.88514146097666 H 0.0 **** 0.06
33210 H 32.8325993032093 51.204320246313216 26.21723770930735 H 0.0 **** 0.06
33211 C 28.10124976840308 1.4056393958201454 15.677297867439393 C 0.0 **** -0.24
33212 H 28.18768132805357 0.8480625392946592 16.610252528579792 H 0.0 **** 0.06
33213 H 27.121238798346667 1.8811222162367471 15.62865265681313 H 0.0 **** 0.06
33214 H 28.21723765708788 0.7234029074826367 14.83435422556289 H 0.0 **** 0.06
33215 H 28.878478513559116 2.169301230828438 15.636581133432514 H 0.0 **** 0.06
33216 C 93.55273336475742 5.163440978542036 41.1056564127299 C 0.0 **** -0.24
33217 H 93.8764276981289 6.14968838796112 41.437698184491126 H 0.0 **** 0.06
33218 H 92.63428703081932 4.887946603512136 41.62593904261621 H 0.0 **** 0.06
33219 H 94.33017912942782 4.432272206765171 41.3293260127748 H 0.0 **** 0.06
33220 H 93.36986708475413 5.183240856313091 40.03155744568295 H 0.0 **** 0.06
33221 C 17.715128840091793 15.834144642769985 54.44166163477672 C 0.0 **** -0.24
33222 H 17.513979703977668 16.236420825675907 55.43459246536332 H 0.0 **** 0.06
33223 H 18.7578598249102 16.014971999700776 54.182192460768704 H 0.0 **** 0.06
33224 H 17.068178998283116 16.322549390155928 53.71403098834736 H 0.0 **** 0.06
33225 H 17.52081355390675 14.761770040793891 54.4390164902548 H 0.0 **** 0.06
33226 C 96.59009976076848 18.557233362385297 9.99908793393871 C 0.0 **** -0.24
33227 H 96.13622749810793 19.107040210655754 9.17422118091622 H 0.0 **** 0.06
33228 H 97.55115949539089 18.15328688761245 9.679619309009183 H 0.0 **** 0.06
33229 H 95.93231250342555 17.74061289812276 10.296472647045562 H 0.0 **** 0.06
33230 H 96.74096347850525 19.229637469477662 10.84375212721244 H 0.0 **** 0.06
33231 C 97.9667661060098 24.564847884884784 93.5114523957546 C 0.0 **** -0.24
33232 H 99.01330215157662 24.616096598691342 93.20910712047419 H 0.0 **** 0.06
33233 H 97.6192896321133 25.56161657772779 93.78428391175869 H 0.0 **** 0.06
33234 H 97.86926184001527 23.898896248966082 94.36832696346264 H 0.0 **** 0.06
33235 H 97.3683604386735 24.184483544526557 92.68452236176891 H 0.0 **** 0.06
33236 C 14.814395035561049 58.255837164380466 15.436520138576427 C 0.0 **** -0.24
33237 H 15.893112412012826 58.15872101983197 15.564828671216844 H 0.0 **** 0.06
33238 H 14.496513187366432 57.66634896392941 14.57678732953255 H 0.0 **** 0.06
33239 H 14.561921576365549 59.30408945603597 15.272773132825506 H 0.0 **** 0.06
33240 H 14.308303702702318 57.89564253342232 16.332547009883 H 0.0 **** 0.06
33241 C 100.45239610241468 35.555385787140125 56.960340019155524 C 0.0 **** -0.24
33242 H 101.34772967898648 35.19529950988893 56.45443059302136 H 0.0 **** 0.06
33243 H 100.50886720641451 35.305164964012064 58.019550228191974 H 0.0 **** 0.06
33244 H 99.57267085647989 35.085034198199956 56.521363261888155 H 0.0 **** 0.06
33245 H 100.38143138211714 36.638162518418675 56.84549482956771 H 0.0 **** 0.06
33246 C 86.65705998547078 34.30266867803377 89.64083541196953 C 0.0 **** -0.24
33247 H 87.18146315330665 33.792876341484515 88.83251503532449 H 0.0 **** 0.06
33248 H 86.31408749531063 33.56838296350924 90.37100538211098 H 0.0 **** 0.06
33249 H 85.79885039827056 34.839709749830575 89.23522353891713 H 0.0 **** 0.06
33250 H 87.3320707558862 35.008204721381844 90.12380954363772 H 0.0 **** 0.06
33251 C 108.73718855895376 8.231863369379312 4.5062805779504345 C 0.0 **** -0.24
33252 H 109.03169651854834 7.421942159828546 5.172939695891074 H 0.0 **** 0.06
33253 H 108.24571272450648 9.016367358811806 5.0822421720578745 H 0.0 **** 0.06
33254 H 108.05086134179453 7.8492628047081325 3.7512014668319296 H 0.0 **** 0.06
33255 H 109.62279713661712 8.640676734368839 4.0188620133975235 H 0.0 **** 0.06
33256 C 97.80837851616818 85.37264395948048 55.30186937481635 C 0.0 **** -0.24
33257 H 96.8126911904263 84.93495905621569 55.22442617212009 H 0.0 **** 0.06
33258 H 98.24989091823409 85.10040211137954 56.260516288046574 H 0.0 **** 0.06
33259 H 97.73349296240289 86.45739930103684 55.23142299474648 H 0.0 **** 0.06
33260 H 98.43489528693067 84.99738801573523 54.49264415980793 H 0.0 **** 0.06
33261 C 2.0207954285622804 103.11870019748324 48.397421693298526 C 0.0 **** -0.24
33262 H 1.034338836137536 102.86659650802159 48.00879355252559 H 0.0 **** 0.06
33263 H 2.387681569405757 104.0184049633597 47.90275548341978 H 0.0 **** 0.06
33264 H 2.7072473197893743 102.29303759403899 48.2070146221291 H 0.0 **** 0.06
33265 H 1.9527990353745253 103.29487422950046 49.470682102005426 H 0.0 **** 0.06
33266 C 51.64604978158135 88.2217654738269 31.199086072611465 C 0.0 **** -0.24
33267 H 51.091006134959464 87.46908260855629 30.639554335128707 H 0.0 **** 0.06
33268 H 52.621859654579325 88.37232441499309 30.737753428440186 H 0.0 **** 0.06
33269 H 51.778547993084096 87.88477311278069 32.22728503920203 H 0.0 **** 0.06
33270 H 51.09184158579482 89.16037152156638 31.19311131473262 H 0.0 **** 0.06
33271 C 108.16781152380858 109.05809280634163 27.50835365049454 C 0.0 **** -0.24
33272 H 107.40837749094108 108.36844000890467 27.139791979491463 H 0.0 **** 0.06
33273 H 107.71017374306348 109.76379436080413 28.203316114195133 H 0.0 **** 0.06
33274 H 108.60107391375358 109.60317753002644 26.66920639139164 H 0.0 **** 0.06
33275 H 108.9497472934915 108.49817966691202 28.021079157613286 H 0.0 **** 0.06
33276 C 110.50872762117905 62.29147581043566 33.03277646347536 C 0.0 **** -0.24
33277 H 110.86274652757932 61.52618765945408 33.72362912520626 H 0.0 **** 0.06
33278 H 111.21382070231479 63.12199709892974 33.01801774840453 H 0.0 **** 0.06
33279 H 109.53119430199472 62.6495004316333 33.357400498524896 H 0.0 **** 0.06
33280 H 110.42563438836284 61.86752547632818 32.031582472696215 H 0.0 **** 0.06
33281 C 82.70113570952739 62.35938471692039 27.25372873451505 C 0.0 **** -0.24
33282 H 82.95041253309287 62.91687563770495 26.352056642275812 H 0.0 **** 0.06
33283 H 82.93990600124403 61.305315722384634 27.10683042878327 H 0.0 **** 0.06
33284 H 81.63679280220731 62.464505131644714 27.464651988361425 H 0.0 **** 0.06
33285 H 83.27724888392285 62.749172998180526 28.093159170632987 H 0.0 **** 0.06
33286 C 2.1558179109663884 36.56593582031735 79.95211211707391 C 0.0 **** -0.24
33287 H 2.660256465547741 37.01863642525353 79.09810235705277 H 0.0 **** 0.06
33288 H 2.442020414595966 35.517112761685524 80.02827005982238 H 0.0 **** 0.06
33289 H 1.076648311916288 36.639545488717204 79.81625798922062 H 0.0 **** 0.06
33290 H 2.4438518936811704 37.088713936333164 80.86389837134425 H 0.0 **** 0.06
33291 C 12.080482152111042 8.01890524181654 102.67749289624982 C 0.0 **** -0.24
33292 H 12.271963238372393 8.814956124281593 103.39695291042219 H 0.0 **** 0.06
33293 H 11.641093800857028 7.1633660235351755 103.19197937338437 H 0.0 **** 0.06
33294 H 13.018352595183437 7.718892255094829 102.20995789608317 H 0.0 **** 0.06
33295 H 11.39114597334843 8.377705321963006 101.91334313732843 H 0.0 **** 0.06
33296 C 33.40244441534635 32.976955099266405 6.452008201431283 C 0.0 **** -0.24
33297 H 32.89474547710557 33.6233126163886 7.167108487916892 H 0.0 **** 0.06
33298 H 34.24294499968528 32.48361925673407 6.940625914396605 H 0.0 **** 0.06
33299 H 33.76706012310268 33.57650215756695 5.617096522558825 H 0.0 **** 0.06
33300 H 32.70410069762724 32.22645277481308 6.081507121760524 H 0.0 **** 0.06
33301 C 75.27925634758998 71.76485083216988 16.99810329627985 C 0.0 **** -0.24
33302 H 74.3030354972118 71.76555618541212 16.514614911219212 H 0.0 **** 0.06
33303 H 75.7243745230095 72.75735811018359 16.91895209082952 H 0.0 **** 0.06
33304 H 75.926422757141 71.03692112171049 16.510263531671058 H 0.0 **** 0.06
33305 H 75.16341988904722 71.50240599631485 18.04952820518372 H 0.0 **** 0.06
33306 C 70.72528984537885 50.62169526236517 99.1306441246833 C 0.0 **** -0.24
33307 H 70.41843353909229 50.03389666992869 98.26587784241617 H 0.0 **** 0.06
33308 H 70.15605146528661 51.5511375271422 99.15854580167985 H 0.0 **** 0.06
33309 H 71.78877845556596 50.84939888356849 99.05718137031248 H 0.0 **** 0.06
33310 H 70.53811472536468 50.05287369710109 100.04179354572925 H 0.0 **** 0.06
33311 C 98.20427478903753 39.19571461266091 67.82918652774853 C 0.0 **** -0.24
33312 H 98.7885327751087 40.1043437067066 67.9739604824517 H 0.0 **** 0.06
33313 H 98.03597471220249 38.71408382628118 68.79276093329689 H 0.0 **** 0.06
33314 H 98.74803413536138 38.51555982638655 67.17299676072174 H 0.0 **** 0.06
33315 H 97.24581638728668 39.44782680353066 67.37587686922738 H 0.0 **** 0.06
33316 C 21.885091727494427 65.81564835459588 87.6303068871453 C 0.0 **** -0.24
33317 H 22.872419246002778 65.35494086182365 87.59467374444513 H 0.0 **** 0.06
33318 H 21.447939358122028 65.66276448958416 88.61720003141514 H 0.0 **** 0.06
33319 H 21.24497198641211 65.359891927359 86.87456185487852 H 0.0 **** 0.06
33320 H 21.975540517873043 66.8837286436079 87.43441863729886 H 0.0 **** 0.06
33321 C 36.00400817953286 107.62335043861549 29.935823142898023 C 0.0 **** -0.24
33322 H 35.109810645521776 107.18635710674744 29.492168667414695 H 0.0 **** 0.06
33323 H 35.84184934332211 107.77581515787111 31.003743949040427 H 0.0 **** 0.06
33324 H 36.21539677530046 108.58052062314206 29.460551891031777 H 0.0 **** 0.06
33325 H 36.84843019106623 106.94968664841255 29.789408299525782 H 0.0 **** 0.06
33326 C 102.41842217725586 83.29237498217418 51.106985972854346 C 0.0 **** -0.24
33327 H 103.46708797034547 83.49505680378314 50.88738198657563 H 0.0 **** 0.06
33328 H 102.32064713523083 82.2851390366211 51.51183349607294 H 0.0 **** 0.06
33329 H 101.83430652917409 83.37510792297019 50.19025486805285 H 0.0 **** 0.06
33330 H 102.05409066313774 84.01549270060411 51.836160853246724 H 0.0 **** 0.06
33331 C 36.58663447447776 93.64746759990778 104.30618858177867 C 0.0 **** -0.24
33332 H 36.72849061672049 94.71895193480879 104.1681637867994 H 0.0 **** 0.06
33333 H 36.74240803606796 93.39352227502323 105.35535404614164 H 0.0 **** 0.06
33334 H 37.30236633242933 93.10325481206468 103.69086019069861 H 0.0 **** 0.06
33335 H 35.573186212434706 93.37468615947255 104.01276293239219 H 0.0 **** 0.06
33336 C 39.89575810729869 44.522719740320326 37.624086117581896 C 0.0 **** -0.24
33337 H 39.97993893006435 43.52924873846763 38.06603040576539 H 0.0 **** 0.06
33338 H 39.38672288659927 44.4496535232131 36.6621774497238 H 0.0 **** 0.06
33339 H 40.8917124037647 44.94068652497174 37.477578311578384 H 0.0 **** 0.06
33340 H 39.32363737491917 45.16931009174789 38.28953973970977 H 0.0 **** 0.06
33341 C 59.13057063164882 3.2450283676114395 12.423633005188606 C 0.0 **** -0.24
33342 H 58.78583235682356 3.489721325151635 13.428208835868588 H 0.0 **** 0.06
33343 H 58.55298467446724 3.809651182797353 11.692939375349852 H 0.0 **** 0.06
33344 H 58.999412259638945 2.1770632806112644 12.245058473070458 H 0.0 **** 0.06
33345 H 60.18673766717973 3.500851962250607 12.330277281972712 H 0.0 **** 0.06
33346 C 77.9219428549231 86.56845067309257 87.1695179159575 C 0.0 **** -0.24
33347 H 78.01401555526368 85.50858922230117 87.40687219900093 H 0.0 **** 0.06
33348 H 77.66894251823896 86.68289355521898 86.11447550228309 H 0.0 **** 0.06
33349 H 78.86674120063728 87.07069366957018 87.37357112258303 H 0.0 **** 0.06
33350 H 77.13530304867943 87.01037374173632 87.7812127391951 H 0.0 **** 0.06
33351 C 45.35449386295461 92.4682231006025 59.53241191902089 C 0.0 **** -0.24
33352 H 45.370953424719765 92.88427565191621 58.52499586943641 H 0.0 **** 0.06
33353 H 44.324323279025194 92.4062108050291 59.882291534511864 H 0.0 **** 0.06
33354 H 45.92740476703141 93.11125718365423 60.20047328742042 H 0.0 **** 0.06
33355 H 45.79590928196911 91.47121856206076 59.520615515781074 H 0.0 **** 0.06
33356 C 43.84561425735836 48.86052796694787 107.89491960601106 C 0.0 **** -0.24
33357 H 43.18119972983038 48.28929629736854 107.24666931411697 H 0.0 **** 0.06
33358 H 44.78581254361001 49.047973983150655 107.37596785365577 H 0.0 **** 0.06
33359 H 44.0387450854372 48.294154675751884 108.80578430093749 H 0.0 **** 0.06
33360 H 43.375441306157654 49.80988152850006 108.14992726426392 H 0.0 **** 0.06
33361 C 67.01431173746249 1.9335900259829657 11.985220662098627 C 0.0 **** -0.24
33362 H 67.48857890844766 1.4570110427690253 12.843465896387343 H 0.0 **** 0.06
33363 H 65.97840673229064 2.1709711363794355 12.229989581144821 H 0.0 **** 0.06
33364 H 67.03930330271857 1.254835562764967 11.132973919834825 H 0.0 **** 0.06
33365 H 67.54876015072364 2.8501963343457106 11.735988859199523 H 0.0 **** 0.06
33366 C 10.525249958449209 30.820777726282984 5.951493061742028 C 0.0 **** -0.24
33367 H 9.897926537354905 31.387506166940796 6.639719728775361 H 0.0 **** 0.06
33368 H 11.033591366549729 31.506418131044512 5.274629776201351 H 0.0 **** 0.06
33369 H 9.904432860270148 30.13333892793173 5.376133341844195 H 0.0 **** 0.06
33370 H 11.264541011929438 30.25411959345621 6.518274386690038 H 0.0 **** 0.06
33371 C 68.02363429042398 54.24635177209913 14.011769356503407 C 0.0 **** -0.24
33372 H 68.9084155087196 53.61573385408107 14.09842364173312 H 0.0 **** 0.06
33373 H 68.26336177905506 55.25634418079994 14.3447825918295 H 0.0 **** 0.06
33374 H 67.22482784611492 53.83809742881857 14.63104102181751 H 0.0 **** 0.06
33375 H 67.69946526346484 54.274596339674105 12.97102853165174 H 0.0 **** 0.06
33376 C 95.61898619284723 56.64804376964571 17.984108212589035 C 0.0 **** -0.24
33377 H 96.34227178672283 57.46278726179423 17.970778755823716 H 0.0 **** 0.06
33378 H 96.13026098722823 55.71323545403436 18.218143096585663 H 0.0 **** 0.06
33379 H 95.14359698058713 56.56782465108165 17.00677986631061 H 0.0 **** 0.06
33380 H 94.8613488062236 56.847475214398 18.742440236730005 H 0.0 **** 0.06
33381 C 78.73591168036016 106.7653108485339 101.40531398451536 C 0.0 **** -0.24
33382 H 79.38768967510173 106.990616320337 102.24941801900245 H 0.0 **** 0.06
33383 H 78.2847144154629 107.68743942325987 101.03864701874794 H 0.0 **** 0.06
33384 H 77.95259959074126 106.07891461718079 101.72487000751232 H 0.0 **** 0.06
33385 H 79.32030726448112 106.30474236699617 100.60821972909898 H 0.0 **** 0.06
33386 C 4.58116688449573 105.11409147847883 53.80838781223152 C 0.0 **** -0.24
33387 H 5.640931433348385 105.07606856205632 53.55880009785924 H 0.0 **** 0.06
33388 H 4.13047383038699 104.13720695497176 53.6287570505388 H 0.0 **** 0.06
33389 H 4.0882869245885445 105.86126006317909 53.18688547878965 H 0.0 **** 0.06
33390 H 4.464785422051676 105.38089941054812 54.85879659633649 H 0.0 **** 0.06
33391 C 51.95340654182513 89.09599263297812 49.711526106229606 C 0.0 **** -0.24
33392 H 52.67076993656565 88.43768000269691 50.2014566811277 H 0.0 **** 0.06
33393 H 52.295076664797364 90.12841472121958 49.78989015641096 H 0.0 **** 0.06
33394 H 50.98080819758826 88.99585324389439 50.193697562806335 H 0.0 **** 0.06
33395 H 51.86767434189312 88.81997573678515 48.660497372354044 H 0.0 **** 0.06
33396 C 27.593854232085818 72.67905506683564 107.63488557047559 C 0.0 **** -0.24
33397 H 27.39654768981279 73.43503052309018 106.8756913236247 H 0.0 **** 0.06
33398 H 28.29345561540069 71.94171336214947 107.23948967436131 H 0.0 **** 0.06
33399 H 26.6615366321021 72.18610452467487 107.90762044544081 H 0.0 **** 0.06
33400 H 28.025298846954996 73.15357337338384 108.51577240268855 H 0.0 **** 0.06
33401 C 81.99735059129341 36.92054531593368 103.08278140488778 C 0.0 **** -0.24
33402 H 81.70741958807113 37.96615930821048 102.97799048572166 H 0.0 **** 0.06
33403 H 83.06930218763381 36.858580055149275 103.26934451592605 H 0.0 **** 0.06
33404 H 81.75706784051664 36.38341185060648 102.16453435838143 H 0.0 **** 0.06
33405 H 81.4558111543555 36.47530170704641 103.91673754451558 H 0.0 **** 0.06
33406 C 76.82036749431319 50.214169055355256 16.25558556807923 C 0.0 **** -0.24
33407 H 77.01935672759159 49.26594143438163 16.754242123094016 H 0.0 **** 0.06
33408 H 75.9412045752309 50.11082088805591 15.618589089538226 H 0.0 **** 0.06
33409 H 77.6803755394943 50.4920316113417 15.64650242189445 H 0.0 **** 0.06
33410 H 76.63822054581095 50.98709847576248 17.002814030130626 H 0.0 **** 0.06
33411 C 105.53664205835315 100.27036393408122 14.999866145956087 C 0.0 **** -0.24
33412 H 104.89085993218154 99.56580695348765 14.476918176814987 H 0.0 **** 0.06
33413 H 105.21369850101138 101.2886617506413 14.783797319880161 H 0.0 **** 0.06
33414 H 106.56575932292583 100.13620880308673 14.664691781337496 H 0.0 **** 0.06
33415 H 105.47780485874256 100.0895176544665 16.073059758163932 H 0.0 **** 0.06
33416 C 102.04422150311086 9.799780770230825 51.80803348934924 C 0.0 **** -0.24
33417 H 101.3262181509657 10.183555318045876 51.08298657034068 H 0.0 **** 0.06
33418 H 102.6348956093135 9.005697473855008 51.349959684756406 H 0.0 **** 0.06
33419 H 101.51023433930095 9.402811509953466 52.67244481454897 H 0.0 **** 0.06
33420 H 102.70405032622733 10.605795529691065 52.127180481305516 H 0.0 **** 0.06
33421 C 24.769541068234464 79.80471889803607 88.15551364407642 C 0.0 **** -0.24
33422 H 24.093821055356678 79.6457420636927 88.99590079479252 H 0.0 **** 0.06
33423 H 25.70455989325964 79.2750954680671 88.33667800281367 H 0.0 **** 0.06
33424 H 24.97068257906914 80.87093758181027 88.04849694229688 H 0.0 **** 0.06
33425 H 24.308552536761514 79.42752180908349 87.24256694813813 H 0.0 **** 0.06
33426 C 71.80372810217042 32.5949266599099 93.81765967608462 C 0.0 **** -0.24
33427 H 71.70931241080986 33.53628894747882 94.36009724258433 H 0.0 **** 0.06
33428 H 72.74597434024214 32.58498225468952 93.26781608410843 H 0.0 **** 0.06
33429 H 70.97418493107239 32.494271708783344 93.11822246741417 H 0.0 **** 0.06
33430 H 71.78563385556613 31.765563669215112 94.5244484284674 H 0.0 **** 0.06
33431 C 107.73038727669214 24.233588691811633 40.64677775406389 C 0.0 **** -0.24
33432 H 107.80203888926152 24.133906496356346 41.73011439037879 H 0.0 **** 0.06
33433 H 106.7011750473003 24.46461271596516 40.37165445262431 H 0.0 **** 0.06
33434 H 108.03139313700251 23.298354985601634 40.17540201604379 H 0.0 **** 0.06
33435 H 108.38556041105664 25.03756992341812 40.31240664019168 H 0.0 **** 0.06
33436 C 58.11596956140389 54.893048076254274 46.446779837026895 C 0.0 **** -0.24
33437 H 58.30973285130543 53.833487312839964 46.61328659249807 H 0.0 **** 0.06
33438 H 57.4893049189927 55.277824480582126 47.25191667127851 H 0.0 **** 0.06
33439 H 57.604504952480056 55.02359674671817 45.493307387265475 H 0.0 **** 0.06
33440 H 59.06062548605149 55.43677463890293 46.4305210027909 H 0.0 **** 0.06
33441 C 66.01001353948027 85.87370640361974 39.608802903673364 C 0.0 **** -0.24
33442 H 66.75248492692663 86.58125284125762 39.23828966146807 H 0.0 **** 0.06
33443 H 66.51074428969241 85.08253489612451 40.16783970816016 H 0.0 **** 0.06
33444 H 65.47139104556902 85.43951859294839 38.76652000318565 H 0.0 **** 0.06
33445 H 65.3079392373412 86.39245032651618 40.26087199742645 H 0.0 **** 0.06
33446 C 46.258916236247046 98.50483035885316 76.28885988821801 C 0.0 **** -0.24
33447 H 46.88186220568781 98.00380773482827 77.03015160279756 H 0.0 **** 0.06
33448 H 46.64116829096423 99.51118439733725 76.11454779640138 H 0.0 **** 0.06
33449 H 45.23398645885595 98.56286423381603 76.65452055757737 H 0.0 **** 0.06
33450 H 46.28077707323075 97.94079528275564 75.35635612294269 H 0.0 **** 0.06
33451 C 88.0225932209807 24.647213321182306 72.26376494053002 C 0.0 **** -0.24
33452 H 86.99320458929864 24.867581386641035 71.98035937680328 H 0.0 **** 0.06
33453 H 88.40112629950534 25.444065623673424 72.90469465273424 H 0.0 **** 0.06
33454 H 88.63907816476849 24.57623729951672 71.36785622186642 H 0.0 **** 0.06
33455 H 88.05494971046883 23.70014950856813 72.80395843256534 H 0.0 **** 0.06
33456 C 45.050141757154236 70.69952843056046 75.73836917840362 C 0.0 **** -0.24
33457 H 44.15137496202398 71.02156020214306 75.21220995414653 H 0.0 **** 0.06
33458 H 44.774311885934395 70.0350808853633 76.5570803982194 H 0.0 **** 0.06
33459 H 45.56934243104146 71.57136849646866 76.13640220669106 H 0.0 **** 0.06
33460 H 45.706501895647705 70.171023105671 75.04667687312372 H 0.0 **** 0.06
33461 C 31.46990124420114 103.0503206656023 94.4240924722287 C 0.0 **** -0.24
33462 H 30.562354281905975 102.62561484417834 93.99548053904473 H 0.0 **** 0.06
33463 H 31.78048587345034 102.45257528820686 95.28197035678988 H 0.0 **** 0.06
33464 H 31.2760692928441 104.07411991281272 94.74438923938526 H 0.0 **** 0.06
33465 H 32.2609258168987 103.04794498473184 93.67358580489073 H 0.0 **** 0.06
33466 C 49.57916062030786 98.27284338995774 105.73205787702868 C 0.0 **** -0.24
33467 H 49.583414895624166 99.08065734544158 106.46265226389858 H 0.0 **** 0.06
33468 H 50.56371865440277 98.1932033754793 105.27185287231117 H 0.0 **** 0.06
33469 H 48.83423754749695 98.48162028546551 104.96381534692786 H 0.0 **** 0.06
33470 H 49.333625760607646 97.33445203822679 106.22944509374936 H 0.0 **** 0.06
33471 C 25.49077376834515 101.38106697776118 58.45707990569908 C 0.0 **** -0.24
33472 H 25.95368335523301 101.49684952860855 57.47632003631615 H 0.0 **** 0.06
33473 H 26.18958270715902 100.8854755203439 59.131785737866835 H 0.0 **** 0.06
33474 H 24.58714736584585 100.77914017731501 58.362532732442695 H 0.0 **** 0.06
33475 H 25.233406165758453 102.36165301683178 58.85564306927297 H 0.0 **** 0.06
33476 C 105.02939257450807 70.2204633333489 87.10181788106468 C 0.0 **** -0.24
33477 H 105.02940362880814 71.17230922002466 86.57063604514764 H 0.0 **** 0.06
33478 H 105.48143507846719 69.45403941095799 86.47147136765437 H 0.0 **** 0.06
33479 H 104.00426673886572 69.93767397370036 87.33946655473753 H 0.0 **** 0.06
33480 H 105.60302662693232 70.31871519783681 88.02288640470118 H 0.0 **** 0.06
33481 C 61.774053960418655 99.37339885298121 39.719105833996366 C 0.0 **** -0.24
33482 H 61.73664648315717 99.07251412310299 38.67231178932613 H 0.0 **** 0.06
33483 H 61.981991749760795 100.44119177874575 39.783361941817816 H 0.0 **** 0.06
33484 H 62.561330125930084 98.81749267007638 40.22821317331673 H 0.0 **** 0.06
33485 H 60.81432785554615 99.1613078637759 40.192176690956785 H 0.0 **** 0.06
33486 C 42.35854081774859 14.569958930469312 34.50488464359637 C 0.0 **** -0.24
33487 H 42.65247895076728 13.527595023498336 34.633129155553775 H 0.0 **** 0.06
33488 H 43.01914120343514 15.04706223787953 33.78095281252956 H 0.0 **** 0.06
33489 H 42.43363474625478 15.087395977579476 35.46197742986914 H 0.0 **** 0.06
33490 H 41.33077112396232 14.615786568373593 34.14603792196266 H 0.0 **** 0.06
33491 C 88.57712044175588 18.29324180821021 79.73594038097474 C 0.0 **** -0.24
33492 H 87.5580916462176 18.047640762598363 80.03408321288913 H 0.0 **** 0.06
33493 H 89.07561524322824 17.395163390004186 79.37045324632163 H 0.0 **** 0.06
33494 H 89.12123380898299 18.686898226897583 80.59511501682138 H 0.0 **** 0.06
33495 H 88.55364382356996 19.043123499918295 78.94610244886434 H 0.0 **** 0.06
33496 C 77.45057812491599 73.4312020700087 59.76224669586833 C 0.0 **** -0.24
33497 H 77.37381470340826 74.49310599838114 59.53003101306166 H 0.0 **** 0.06
33498 H 78.46881153359828 73.20089432321946 60.07709243992008 H 0.0 **** 0.06
33499 H 77.20283430378015 72.84630958262758 58.87619955724364 H 0.0 **** 0.06
33500 H 76.7568519588772 73.18449837580667 60.565663773247934 H 0.0 **** 0.06
33501 C 110.63762874652275 102.2516483787029 0.8518860309098102 C 0.0 **** -0.24
33502 H 110.98243358674762 101.98160113416212 -0.14634482846992114 H 0.0 **** 0.06
33503 H 110.22135765429957 103.25898832837454 0.8334917929526569 H 0.0 **** 0.06
33504 H 111.47700666132835 102.21827244249275 1.5466266346089697 H 0.0 **** 0.06
33505 H 109.87110061358268 101.54623022505093 1.1746826322069523 H 0.0 **** 0.06
33506 C 37.69856765151019 89.65732256928152 37.04451368781926 C 0.0 **** -0.24
33507 H 37.55278733369329 88.75630423603633 36.45011760109503 H 0.0 **** 0.06
33508 H 38.34442995480197 89.43242393357343 37.894236173836504 H 0.0 **** 0.06
33509 H 36.733784704308846 90.01468425708515 37.40595424097495 H 0.0 **** 0.06
33510 H 38.16323677666753 90.42770884562805 36.42937361726166 H 0.0 **** 0.06
33511 C 57.50478529465734 37.6241535786844 109.2689045544463 C 0.0 **** -0.24
33512 H 56.90106681573783 38.17136634369467 108.54444202743085 H 0.0 **** 0.06
33513 H 56.918207545839145 36.803240928183705 109.6832169645997 H 0.0 **** 0.06
33514 H 57.80673769534517 38.29648685422723 110.07240096505383 H 0.0 **** 0.06
33515 H 58.39091784524497 37.22520621497325 108.77566747762327 H 0.0 **** 0.06
33516 C 36.49689531406477 51.32421466336953 90.31613329514477 C 0.0 **** -0.24
33517 H 36.204430565549785 51.18154930727174 89.2760829726844 H 0.0 **** 0.06
33518 H 35.87181101161332 52.09487474925506 90.76677545883183 H 0.0 **** 0.06
33519 H 37.54168014376319 51.631656161199594 90.36082240273356 H 0.0 **** 0.06
33520 H 36.36965953533297 50.38877843575155 90.86085234632915 H 0.0 **** 0.06
33521 C 103.59459312197424 35.33681896887437 91.84285178300007 C 0.0 **** -0.24
33522 H 104.1022574650141 35.52811464487017 92.78791081730276 H 0.0 **** 0.06
33523 H 103.47589968098006 36.27359371091516 91.29800070114834 H 0.0 **** 0.06
33524 H 102.61476914151447 34.90222575161764 92.03784762053573 H 0.0 **** 0.06
33525 H 104.18723315225446 34.64216104278664 91.24700538725398 H 0.0 **** 0.06
33526 C 11.687836840748524 12.009403097369699 68.77044384482878 C 0.0 **** -0.24
33527 H 11.230029966035602 11.072561236775996 69.08857580463693 H 0.0 **** 0.06
33528 H 12.160569374771931 12.491178935512494 69.62680578170757 H 0.0 **** 0.06
33529 H 10.922320429263735 12.667383595177114 68.35962393155405 H 0.0 **** 0.06
33530 H 12.439358865673714 11.804990987775554 68.00814466109018 H 0.0 **** 0.06
33531 C 8.760140817375827 88.21890992051362 69.57169522117874 C 0.0 **** -0.24
33532 H 8.555004173217128 87.1985859492234 69.24855956038306 H 0.0 **** 0.06
33533 H 9.454080657078123 88.6887069613444 68.87472250465675 H 0.0 **** 0.06
33534 H 9.202348958331754 88.20231789695671 70.56795493098934 H 0.0 **** 0.06
33535 H 7.829349049831194 88.78635954826046 69.596461763751 H 0.0 **** 0.06
33536 C 67.53736736859577 41.86081168734481 106.76421132045402 C 0.0 **** -0.24
33537 H 66.94907494127138 42.18067758189878 105.90421622990479 H 0.0 **** 0.06
33538 H 68.57698530962274 42.16056704412878 106.62398612252258 H 0.0 **** 0.06
33539 H 67.48233284981235 40.776594218144794 106.86011437291835 H 0.0 **** 0.06
33540 H 67.14336838134226 42.32648450804777 107.66663432048738 H 0.0 **** 0.06
33541 C 84.69420148124534 17.460927132416415 81.84030722231886 C 0.0 **** -0.24
33542 H 84.34800643587724 18.0486444502814 80.99045132440044 H 0.0 **** 0.06
33543 H 84.6372456745509 16.39991464272012 81.59632508054904 H 0.0 **** 0.06
33544 H 84.06506272665828 17.669197822807135 82.70599856713388 H 0.0 **** 0.06
33545 H 85.72659317770787 17.72569342383656 82.0701636149479 H 0.0 **** 0.06
33546 C 45.93721901028638 20.487690792780256 5.688369582784077 C 0.0 **** -0.24
33547 H 45.92003154049869 19.72889512080809 4.905163658390023 H 0.0 **** 0.06
33548 H 45.23860426837102 20.21009910289962 6.477755442344602 H 0.0 **** 0.06
33549 H 45.64646119923948 21.449507119820993 5.266750151896133 H 0.0 **** 0.06
33550 H 46.94283544075591 20.560437191150555 6.100681613182076 H 0.0 **** 0.06
33551 C 45.33268836828205 58.55502114262922 58.00165853346252 C 0.0 **** -0.24
33552 H 45.30007569411063 59.429274500971644 57.35168068908183 H 0.0 **** 0.06
33553 H 45.86491900096553 57.74827241761943 57.497479209679256 H 0.0 **** 0.06
33554 H 44.316361927468066 58.2333970117216 58.22796626525451 H 0.0 **** 0.06
33555 H 45.84818087065236 58.80901556906453 58.92676822486203 H 0.0 **** 0.06
33556 C 59.98854090410758 51.904528072290496 13.755235210496807 C 0.0 **** -0.24
33557 H 60.48721532456362 50.942651238090654 13.634493634982363 H 0.0 **** 0.06
33558 H 60.29823823100104 52.57654759770857 12.954641010155498 H 0.0 **** 0.06
33559 H 60.26034103601748 52.33689511521697 14.71800109158005 H 0.0 **** 0.06
33560 H 58.90869141461263 51.76185282895968 13.712438074873205 H 0.0 **** 0.06
33561 C 77.80510276787939 46.286457417327625 41.813089869662235 C 0.0 **** -0.24
33562 H 77.99946890552243 47.329616455535245 41.564448076716985 H 0.0 **** 0.06
33563 H 78.01724970661213 46.11896021995099 42.86863193571634 H 0.0 **** 0.06
33564 H 78.44330642567222 45.64418358108176 41.20680519481593 H 0.0 **** 0.06
33565 H 76.75938516062865 46.05435946539657 41.610946440057006 H 0.0 **** 0.06
33566 C 77.25335468730538 65.5632919752776 65.36539070948527 C 0.0 **** -0.24
33567 H 76.56488931216137 65.65812651844163 66.20550236978926 H 0.0 **** 0.06
33568 H 77.79647949088314 66.49847265865037 65.23386806588215 H 0.0 **** 0.06
33569 H 76.69086462106316 65.3377498426513 64.45931874213454 H 0.0 **** 0.06
33570 H 77.95954671140572 64.75667580258823 65.56452370899473 H 0.0 **** 0.06
33571 C 101.33702070145193 60.82163099405534 53.86714321336256 C 0.0 **** -0.24
33572 H 100.91021235615437 60.55597416682531 52.89993133113958 H 0.0 **** 0.06
33573 H 102.07430125670919 60.07236155958833 54.15621319041341 H 0.0 **** 0.06
33574 H 100.54433062182784 60.86079298564664 54.615062036999376 H 0.0 **** 0.06
33575 H 101.81802072608923 61.79664080002101 53.79597064506243 H 0.0 **** 0.06
33576 C 18.446757469354026 51.3870055722001 107.20442035681725 C 0.0 **** -0.24
33577 H 19.209139133761113 51.957653717716646 107.73465485127662 H 0.0 **** 0.06
33578 H 17.705238328764864 51.022975250072754 107.91629961111175 H 0.0 **** 0.06
33579 H 18.912459886111776 50.54198822238662 106.69917925223643 H 0.0 **** 0.06
33580 H 17.960352052886464 52.02764749545854 106.46852060018114 H 0.0 **** 0.06
33581 C 88.48404932604632 38.40783317579101 6.976270433919424 C 0.0 **** -0.24
33582 H 88.8600882659616 38.27753807553134 7.991254009151973 H 0.0 **** 0.06
33583 H 88.66253396407402 39.43403924457134 6.6516519158079745 H 0.0 **** 0.06
33584 H 87.41340785322609 38.201784331502324 6.956867014931518 H 0.0 **** 0.06
33585 H 88.99853173611004 37.71948654663214 6.306323076700053 H 0.0 **** 0.06
33586 C 4.870037377105348 56.6315522446021 102.61687554626701 C 0.0 **** -0.24
33587 H 5.517200148263527 55.8566814777202 102.2042880489604 H 0.0 **** 0.06
33588 H 4.016756053390253 56.78084437753275 101.95403872227428 H 0.0 **** 0.06
33589 H 5.429021851964876 57.562784407858686 102.70553623296188 H 0.0 **** 0.06
33590 H 4.516940878241371 56.32365717584294 103.60065203520847 H 0.0 **** 0.06
33591 C 64.46752201070319 23.702282063571147 28.37776808486474 C 0.0 **** -0.24
33592 H 63.58397245758829 24.28478417292868 28.119930677919598 H 0.0 **** 0.06
33593 H 64.17082551643352 22.684380417520316 28.629683023810486 H 0.0 **** 0.06
33594 H 64.96696358743742 24.158412845385214 29.232444951533438 H 0.0 **** 0.06
33595 H 65.14984931400849 23.682692142202455 27.527471394892984 H 0.0 **** 0.06
33596 C 38.5584778722571 22.870677719785107 110.33159164676866 C 0.0 **** -0.24
33597 H 38.770798381903916 22.49111164422905 109.33195254006267 H 0.0 **** 0.06
33598 H 39.30084963692818 23.624066365062305 110.59874992117057 H 0.0 **** 0.06
33599 H 38.599730856896514 22.049649041347294 111.04752938498805 H 0.0 **** 0.06
33600 H 37.565203175969884 23.317474998455168 110.34683036149283 H 0.0 **** 0.06
33601 C 7.010444192487455 86.4007140185006 63.27497058346708 C 0.0 **** -0.24
33602 H 6.725538062955366 85.81959205929542 62.39840486751035 H 0.0 **** 0.06
33603 H 7.085653949204243 85.74131148936328 64.13974601039186 H 0.0 **** 0.06
33604 H 6.2556700089184005 87.16457927105102 63.46484316184592 H 0.0 **** 0.06
33605 H 7.973621050743134 86.87832286309458 63.09623657400604 H 0.0 **** 0.06
33606 C 32.236391631977 49.19887462408539 107.18585686548408 C 0.0 **** -0.24
33607 H 32.95111171123471 48.38138847352619 107.28766748710734 H 0.0 **** 0.06
33608 H 31.412941265898368 48.88255598603209 106.54383672796155 H 0.0 **** 0.06
33609 H 32.73205994555883 50.06140069093047 106.74280006340581 H 0.0 **** 0.06
33610 H 31.848779263012823 49.46647323593325 108.16907067195507 H 0.0 **** 0.06
33611 C 10.894739416773916 37.8474612986603 32.46286808888834 C 0.0 **** -0.24
33612 H 10.266275724668446 36.95716719528568 32.47577202627504 H 0.0 **** 0.06
33613 H 11.017314395562238 38.19043383092326 31.435155100749228 H 0.0 **** 0.06
33614 H 11.870243056875722 37.609630120891104 32.88638394734784 H 0.0 **** 0.06
33615 H 10.423115142792113 38.633590772779506 33.05406756332003 H 0.0 **** 0.06
33616 C 74.08806519072755 61.612954369115016 66.2896310079741 C 0.0 **** -0.24
33617 H 73.24205346615656 62.08517165297428 66.7907016773201 H 0.0 **** 0.06
33618 H 73.85355658261165 61.47435409625359 65.2339106655503 H 0.0 **** 0.06
33619 H 74.28729772535178 60.64484375311724 66.74893695571217 H 0.0 **** 0.06
33620 H 74.96751581150295 62.24919301339622 66.38623172167598 H 0.0 **** 0.06
33621 C 23.608284690638698 35.925363680386084 37.768622786546814 C 0.0 **** -0.24
33622 H 23.488899088219114 36.202700357786796 36.721456535112 H 0.0 **** 0.06
33623 H 24.35392202969311 35.13457520781546 37.85187114715558 H 0.0 **** 0.06
33624 H 22.655112668386636 35.57000008980512 38.16117416816007 H 0.0 **** 0.06
33625 H 23.934362818444015 36.79531494828106 38.340014643921506 H 0.0 **** 0.06
33626 C 108.65636411982204 88.2660218896339 105.69316094512521 C 0.0 **** -0.24
33627 H 109.48058322077833 87.55579482631543 105.6191732379909 H 0.0 **** 0.06
33628 H 108.41103938882475 88.64120553162985 104.69972512393838 H 0.0 **** 0.06
33629 H 108.95112126421621 89.09744592532304 106.33382782860676 H 0.0 **** 0.06
33630 H 107.78615624909963 87.76841373420575 106.12071456259406 H 0.0 **** 0.06
33631 C 92.52424335281327 77.81342147818253 26.03246354840863 C 0.0 **** -0.24
33632 H 92.48268685409863 78.5745661281312 25.2534727906923 H 0.0 **** 0.06
33633 H 91.5302503611453 77.67428519147302 26.457504434577103 H 0.0 **** 0.06
33634 H 93.21434988812155 78.13164972049454 26.81472984296036 H 0.0 **** 0.06
33635 H 92.87031743416048 76.87284390357722 25.60345036862637 H 0.0 **** 0.06
33636 C 36.91773723444828 80.98035483831882 109.72735597735436 C 0.0 **** -0.24
33637 H 37.32756669837599 81.1921381646529 108.73965694525995 H 0.0 **** 0.06
33638 H 36.15853207737976 81.72364912449135 109.97256387041476 H 0.0 **** 0.06
33639 H 37.71756049168806 81.01780879657194 110.46789750983433 H 0.0 **** 0.06
33640 H 36.46850847250883 79.98681935304613 109.72859366552929 H 0.0 **** 0.06
33641 C 0.8072069612528026 88.35625039440484 102.84178800264516 C 0.0 **** -0.24
33642 H 0.4409050048164431 87.78397240185478 103.69377478687238 H 0.0 **** 0.06
33643 H -0.03786957124907531 88.78570334281648 102.3033963528622 H 0.0 **** 0.06
33644 H 1.3656250710586164 87.69877240948628 102.17536047292481 H 0.0 **** 0.06
33645 H 1.45913558205433 89.15519282879109 103.19432986785168 H 0.0 **** 0.06
33646 C 87.75374999697743 18.85918220819579 75.77766031596282 C 0.0 **** -0.24
33647 H 87.4866745432555 18.30062365096444 76.67454199846082 H 0.0 **** 0.06
33648 H 88.60595005269707 18.382111553898085 75.29266089735262 H 0.0 **** 0.06
33649 H 88.01576290109585 19.882100514527565 76.04989580194174 H 0.0 **** 0.06
33650 H 86.90537088196055 18.871960795209475 75.09168405112501 H 0.0 **** 0.06
33651 C 68.50541359614485 11.688848845221571 32.12706757229603 C 0.0 **** -0.24
33652 H 69.22099820356858 11.231716659030837 31.44458570374252 H 0.0 **** 0.06
33653 H 67.4946697850215 11.393861437070086 31.84558383105255 H 0.0 **** 0.06
33654 H 68.59526799283904 12.773704555923445 32.07409597130416 H 0.0 **** 0.06
33655 H 68.71129888113335 11.356475374178189 33.145242375198904 H 0.0 **** 0.06
33656 C 89.61829858305646 38.483568457644566 48.01880428552247 C 0.0 **** -0.24
33657 H 89.80014335938768 37.42986560707638 47.807235118053136 H 0.0 **** 0.06
33658 H 89.49477067291309 38.62117741803871 49.09363005221733 H 0.0 **** 0.06
33659 H 88.71316577527739 38.805934692108565 47.50463669090885 H 0.0 **** 0.06
33660 H 90.46484084098063 39.07477679061415 47.6713210712697 H 0.0 **** 0.06
33661 C 69.19008477761477 56.73963973884574 52.52901151039157 C 0.0 **** -0.24
33662 H 68.62379287142109 57.64731742079425 52.737660580164516 H 0.0 **** 0.06
33663 H 69.94309655472235 56.596096147225325 53.30490732183529 H 0.0 **** 0.06
33664 H 69.67944565763233 56.83123425479275 51.55970398887774 H 0.0 **** 0.06
33665 H 68.51307592845484 55.88508550528013 52.515713166955436 H 0.0 **** 0.06
33666 C 43.368484102824794 5.370896006873979 75.0421371252632 C 0.0 **** -0.24
33667 H 42.41871792563558 5.039912737764709 74.62101949512169 H 0.0 **** 0.06
33668 H 43.25605766461077 5.523646422100404 76.11593663375507 H 0.0 **** 0.06
33669 H 43.66782305295817 6.307350086083424 74.57098672053124 H 0.0 **** 0.06
33670 H 44.129953797610625 4.612524922113529 74.85957496319418 H 0.0 **** 0.06
33671 C 20.886074025408874 44.08532572339587 62.05317929427409 C 0.0 **** -0.24
33672 H 21.63908271155765 44.63797773227222 61.492435729019434 H 0.0 **** 0.06
33673 H 19.906828967888373 44.24696558295744 61.601543986561694 H 0.0 **** 0.06
33674 H 20.872750894795928 44.4358711623446 63.08552475782304 H 0.0 **** 0.06
33675 H 21.12581336821762 43.022665930154204 62.03368845658278 H 0.0 **** 0.06
33676 C 91.03468186893815 52.391787544602124 30.802179184675964 C 0.0 **** -0.24
33677 H 91.50577825670462 51.53052709087632 31.274539525804897 H 0.0 **** 0.06
33678 H 91.30748845977416 52.42038756441909 29.746167607918863 H 0.0 **** 0.06
33679 H 91.37422041142301 53.30510221132607 31.29084536484615 H 0.0 **** 0.06
33680 H 89.95144633085721 52.3105833352879 30.895877695379 H 0.0 **** 0.06
33681 C 17.966649758113807 51.37831441076247 0.18195978439973715 C 0.0 **** -0.24
33682 H 18.47463767068356 50.771316416208265 -0.567506326815618 H 0.0 **** 0.06
33683 H 18.707568411083255 51.897144011243086 0.7915097882820135 H 0.0 **** 0.06
33684 H 17.357523195730593 50.73560761417133 0.8171341768356513 H 0.0 **** 0.06
33685 H 17.328761844237007 52.109331147252476 -0.31448180722503594 H 0.0 **** 0.06
33686 C 95.22638432428352 90.95164966570822 33.69226928573886 C 0.0 **** -0.24
33687 H 94.16014889009551 90.83192205603999 33.497587288663965 H 0.0 **** 0.06
33688 H 95.52125030019063 90.29745227786644 34.51309423327416 H 0.0 **** 0.06
33689 H 95.43143587896796 91.98792311972417 33.960373564762676 H 0.0 **** 0.06
33690 H 95.7901704777358 90.68904863417234 32.796432433795815 H 0.0 **** 0.06
33691 C 33.27237869245982 63.43003226153975 104.08278394234699 C 0.0 **** -0.24
33692 H 34.06434199552303 63.37793607335908 103.33540394169087 H 0.0 **** 0.06
33693 H 32.448144298254405 62.78234277982318 103.78422452548317 H 0.0 **** 0.06
33694 H 32.91661027352854 64.45816704915764 104.16316131743913 H 0.0 **** 0.06
33695 H 33.66056507853783 63.10380711168344 105.0471345849172 H 0.0 **** 0.06
33696 C 87.62353856132539 100.96934563279234 64.50216379170604 C 0.0 **** -0.24
33697 H 87.10561344459538 100.3806422238655 63.74424119671612 H 0.0 **** 0.06
33698 H 87.01826127467093 101.83765777344746 64.76361779092633 H 0.0 **** 0.06
33699 H 88.58422352710853 101.30070221166602 64.10837713657189 H 0.0 **** 0.06
33700 H 87.78545333816372 100.3573376888254 65.389494966953 H 0.0 **** 0.06
33701 C 57.630467631569275 1.9984090898203135 84.13548175425416 C 0.0 **** -0.24
33702 H 57.48581691479825 1.0929194781766114 84.7235280035242 H 0.0 **** 0.06
33703 H 57.157761378707846 2.8399736257328527 84.64255541511608 H 0.0 **** 0.06
33704 H 57.18167329675032 1.8677156007402687 83.15086376637532 H 0.0 **** 0.06
33705 H 58.697269264060196 2.193416987692359 84.0256321689429 H 0.0 **** 0.06
33706 C 92.65369593298236 78.23347025158057 98.95962501436445 C 0.0 **** -0.24
33707 H 92.61226344293561 79.08611517067956 99.63768603064851 H 0.0 **** 0.06
33708 H 93.69054581529103 78.03664274485773 98.68707779856159 H 0.0 **** 0.06
33709 H 92.07779757334981 78.4557025441299 98.06164974506581 H 0.0 **** 0.06
33710 H 92.23366395304687 77.3569195640721 99.45395467308354 H 0.0 **** 0.06
33711 C 50.14638541346576 10.44594181322995 17.159266573630475 C 0.0 **** -0.24
33712 H 49.71380059601478 9.609015377220373 17.708374302668773 H 0.0 **** 0.06
33713 H 49.6039162320615 11.359402484335845 17.40199583870836 H 0.0 **** 0.06
33714 H 50.07540604582918 10.253099689612299 16.088784168665697 H 0.0 **** 0.06
33715 H 51.19453128425251 10.559788942813299 17.438606638424915 H 0.0 **** 0.06
33716 C 95.98402213602338 108.44615564147347 68.59506154256931 C 0.0 **** -0.24
33717 H 94.9045295718347 108.31203558385988 68.66048569067908 H 0.0 **** 0.06
33718 H 96.45563249454466 107.49047892006597 68.36970998166603 H 0.0 **** 0.06
33719 H 96.3609703039424 108.82290862458713 69.54593377617263 H 0.0 **** 0.06
33720 H 96.2139685468552 109.16121107147326 67.80510577333351 H 0.0 **** 0.06
33721 C 64.8274739344601 75.01367551403145 74.20344739215763 C 0.0 **** -0.24
33722 H 64.55157112737625 75.136555028529 75.25012257089236 H 0.0 **** 0.06
33723 H 64.0025665732279 75.34091651678595 73.57015604598409 H 0.0 **** 0.06
33724 H 65.04326972852664 73.963204268403 74.00516443003531 H 0.0 **** 0.06
33725 H 65.71150563273856 75.61310039786625 73.98876754472924 H 0.0 **** 0.06
33726 C 28.059498400638404 34.79634337171189 87.36003470189482 C 0.0 **** -0.24
33727 H 28.158912454040347 34.72076509034694 88.44322053109676 H 0.0 **** 0.06
33728 H 28.486373361847313 33.909226963202684 86.89348040162605 H 0.0 **** 0.06
33729 H 28.58754806656026 35.68276027397761 87.00775017725493 H 0.0 **** 0.06
33730 H 27.004714993127607 34.874093146011795 87.09731118904972 H 0.0 **** 0.06
33731 C 69.0120747066812 39.350158313195834 78.03499705750626 C 0.0 **** -0.24
33732 H 69.11452762571896 38.29521016642795 77.77807565887959 H 0.0 **** 0.06
33733 H 68.9376729274099 39.939682192692885 77.12126640996587 H 0.0 **** 0.06
33734 H 69.88321486243794 39.6721024538065 78.60544558560133 H 0.0 **** 0.06
33735 H 68.11176746982618 39.49128090159252 78.63341250649266 H 0.0 **** 0.06
33736 C 34.498592150252705 97.1904129151145 3.277904118271678 C 0.0 **** -0.24
33737 H 33.486343349501794 97.52196489353742 3.047481981843873 H 0.0 **** 0.06
33738 H 34.455359389581986 96.3280226924096 3.944311533837535 H 0.0 **** 0.06
33739 H 35.044037599831995 97.99974523579311 3.7654533928830034 H 0.0 **** 0.06
33740 H 35.009016875621114 96.91230996645879 2.356536647816796 H 0.0 **** 0.06
33741 C 21.1681761300822 26.56615992485675 16.14967643170912 C 0.0 **** -0.24
33742 H 21.75807662250469 26.901572031016116 15.297898435605713 H 0.0 **** 0.06
33743 H 21.83256521170338 26.324691528292533 16.979255170785652 H 0.0 **** 0.06
33744 H 20.597954157476146 25.680548627111335 15.8699707960936 H 0.0 **** 0.06
33745 H 20.4832455071336 27.35894632184386 16.451521648457753 H 0.0 **** 0.06
33746 C 92.74227367267758 93.02478144465931 77.6273218622872 C 0.0 **** -0.24
33747 H 93.14824312767371 92.96529126638546 76.61818194024531 H 0.0 **** 0.06
33748 H 93.45542297605476 93.53331024204742 78.27630050437423 H 0.0 **** 0.06
33749 H 92.55911926971282 92.01812631800495 78.00535061525783 H 0.0 **** 0.06
33750 H 91.80501663940936 93.58183065721421 77.60953960021361 H 0.0 **** 0.06
33751 C 82.85487317864583 95.47824398826504 7.266926720213462 C 0.0 **** -0.24
33752 H 83.80145419218825 95.18286228651053 7.720171462853102 H 0.0 **** 0.06
33753 H 83.0364189389655 96.2510725774181 6.52017520308965 H 0.0 **** 0.06
33754 H 82.18917414010562 95.86629969605056 8.038026130991739 H 0.0 **** 0.06
33755 H 82.39369828507454 94.61351287200624 6.790688856566078 H 0.0 **** 0.06
33756 C 89.8373053576254 31.95922816212689 26.617352214717897 C 0.0 **** -0.24
33757 H 90.38150761712362 32.67787579358793 26.005304692380435 H 0.0 **** 0.06
33758 H 89.04918786490177 32.47388652220451 27.167972207325448 H 0.0 **** 0.06
33759 H 90.52385981159414 31.487287144276678 27.32060495499124 H 0.0 **** 0.06
33760 H 89.39424889687939 31.196965517509767 25.97566894769014 H 0.0 **** 0.06
33761 C 84.45894427049754 86.6238717219241 51.373232438992815 C 0.0 **** -0.24
33762 H 84.16776822132152 87.61293246193706 51.727746363984686 H 0.0 **** 0.06
33763 H 85.17537280434098 86.7266097676255 50.55751199786981 H 0.0 **** 0.06
33764 H 83.5766054671056 86.0915054678959 51.01739235936192 H 0.0 **** 0.06
33765 H 84.91575688256313 86.06533758843501 52.19062256877413 H 0.0 **** 0.06
33766 C 74.45465652258412 80.33499333099068 85.88297902119888 C 0.0 **** -0.24
33767 H 73.65552321484753 81.01377478079806 85.58561995295133 H 0.0 **** 0.06
33768 H 74.82740951052978 79.80658551509919 85.00492653198552 H 0.0 **** 0.06
33769 H 74.06998618665395 79.61442841272665 86.60492339398434 H 0.0 **** 0.06
33770 H 75.26576985986048 80.90589889290074 86.3357491198932 H 0.0 **** 0.06
33771 C 49.923125821292906 54.67821831152164 71.34468335436051 C 0.0 **** -0.24
33772 H 50.9620272267303 54.69220831578872 71.67720249787686 H 0.0 **** 0.06
33773 H 49.680232982796774 53.689594511518706 70.95403411653507 H 0.0 **** 0.06
33774 H 49.78285661457948 55.423485782343285 70.56174103328783 H 0.0 **** 0.06
33775 H 49.270273891815414 54.90737183991713 72.18654184467599 H 0.0 **** 0.06
33776 C 17.651328975482315 87.77924891288484 80.66989794229477 C 0.0 **** -0.24
33777 H 17.085786252166372 88.68506752472135 80.45385454861929 H 0.0 **** 0.06
33778 H 17.091932294391967 87.16073545844347 81.37254667869155 H 0.0 **** 0.06
33779 H 18.612917026979247 88.04686190026831 81.10572513858205 H 0.0 **** 0.06
33780 H 17.813084971095762 87.22385765457273 79.74566782148065 H 0.0 **** 0.06
33781 C 71.19056144103183 69.84247041970428 6.828285846872385 C 0.0 **** -0.24
33782 H 71.31596203941459 70.23103584184315 7.839119836258099 H 0.0 **** 0.06
33783 H 70.57414686240543 68.94380348598548 6.858060988200455 H 0.0 **** 0.06
33784 H 72.16736784715843 69.59967009840852 6.409183218326664 H 0.0 **** 0.06
33785 H 70.7061916238693 70.59606455534453 6.207484363954201 H 0.0 **** 0.06
33786 C 13.841629318151696 58.50974259640276 82.72226504945544 C 0.0 **** -0.24
33787 H 14.304331538845389 59.49408642445114 82.7916812001116 H 0.0 **** 0.06
33788 H 12.86845696373388 58.59949144429537 82.23761410251295 H 0.0 **** 0.06
33789 H 13.713221646064614 58.09813772139585 83.72288764596803 H 0.0 **** 0.06
33790 H 14.479997786672648 57.84912338356892 82.13575957064246 H 0.0 **** 0.06
33791 C 12.860322613084179 90.89936192179556 61.428775791161456 C 0.0 **** -0.24
33792 H 13.011883731646932 89.8918077744137 61.81449918907762 H 0.0 **** 0.06
33793 H 13.790832365563592 91.2670169611518 60.9958472501562 H 0.0 **** 0.06
33794 H 12.552615648629242 91.55644121665367 62.24236534939212 H 0.0 **** 0.06
33795 H 12.08511464038773 90.88210616452187 60.66292231084492 H 0.0 **** 0.06
33796 C 10.001625469173021 78.45710972374366 60.250362645824794 C 0.0 **** -0.24
33797 H 8.989192507235515 78.80046275451491 60.45912529751581 H 0.0 **** 0.06
33798 H 10.088649379184645 77.40137955023027 60.5101653570116 H 0.0 **** 0.06
33799 H 10.71077661907745 79.03602476051077 60.84094176345741 H 0.0 **** 0.06
33800 H 10.2185630411321 78.58865922790619 59.189846923269215 H 0.0 **** 0.06
33801 C 92.0686336614612 101.22630819660469 64.54552397146642 C 0.0 **** -0.24
33802 H 91.87583679144147 102.22229986208976 64.14713259344853 H 0.0 **** 0.06
33803 H 92.51364261565682 101.31103222413996 65.53707912183324 H 0.0 **** 0.06
33804 H 92.75382961171972 100.69766150785847 63.88323181967135 H 0.0 **** 0.06
33805 H 91.13000334029051 100.67538850207691 64.61356363453518 H 0.0 **** 0.06
33806 C 24.36054498582328 20.687143573465107 10.868339380833902 C 0.0 **** -0.24
33807 H 23.5434065444787 19.999732331228998 11.087155022130219 H 0.0 **** 0.06
33808 H 25.21186778603669 20.128160158408207 10.481082725673105 H 0.0 **** 0.06
33809 H 24.65152011506973 21.206502331450906 11.781707167383558 H 0.0 **** 0.06
33810 H 24.034047420839727 21.414899967564892 10.12505294010748 H 0.0 **** 0.06
33811 C 77.97529183597351 6.144537141598846 23.194026307768354 C 0.0 **** -0.24
33812 H 79.05829684945003 6.018589161315333 23.208274894771762 H 0.0 **** 0.06
33813 H 77.60075107320311 5.947546130472034 22.189929474873395 H 0.0 **** 0.06
33814 H 77.72526933619243 7.165650540451935 23.481838579757778 H 0.0 **** 0.06
33815 H 77.51889999185313 5.447656685526852 23.896414238497073 H 0.0 **** 0.06
33816 C 11.07889956717608 94.36580150546362 84.80977226623845 C 0.0 **** -0.24
33817 H 11.134208772981196 94.96792790539465 83.9036407354923 H 0.0 **** 0.06
33818 H 11.041598861761202 93.30906589128533 84.54273426209839 H 0.0 **** 0.06
33819 H 10.181795131725636 94.63195791665487 85.36825691259489 H 0.0 **** 0.06
33820 H 11.959402788101158 94.55430400462744 85.42458821714845 H 0.0 **** 0.06
33821 C 80.52193114111206 105.04127084596001 77.38703767166216 C 0.0 **** -0.24
33822 H 79.7559042797399 105.80933844284684 77.49239768369456 H 0.0 **** 0.06
33823 H 80.61729573954719 104.76503174797617 76.3361478725791 H 0.0 **** 0.06
33824 H 80.23937844418148 104.16385185624742 77.9694049607508 H 0.0 **** 0.06
33825 H 81.47490051796342 105.4263519566631 77.74937538409662 H 0.0 **** 0.06
33826 C 80.52780668552776 43.557077771075896 101.23833238761942 C 0.0 **** -0.24
33827 H 81.23613317998138 43.494445452640115 102.06397060304634 H 0.0 **** 0.06
33828 H 80.89678153428864 42.96892342300703 100.39748947422966 H 0.0 **** 0.06
33829 H 80.41718027144526 44.597499354543515 100.9330530936861 H 0.0 **** 0.06
33830 H 79.56146766891547 43.16836457108837 101.55862234118545 H 0.0 **** 0.06
33831 C 80.42357083014633 64.19681835125363 33.58384154990887 C 0.0 **** -0.24
33832 H 80.79736120983284 63.49348796606654 34.32801078942623 H 0.0 **** 0.06
33833 H 81.26082084620373 64.61172799430233 33.023656694444696 H 0.0 **** 0.06
33834 H 79.88382938433966 65.00153608945351 34.0830582018765 H 0.0 **** 0.06
33835 H 79.75036663833708 63.67844182293135 32.900854992801214 H 0.0 **** 0.06
33836 C 4.856801190831149 60.29633355615337 62.37276870701726 C 0.0 **** -0.24
33837 H 5.559490782709219 59.76075460537686 61.73396726211513 H 0.0 **** 0.06
33838 H 4.451144622786657 61.15007864467219 61.830329970328535 H 0.0 **** 0.06
33839 H 5.372913747795792 60.645922195303115 63.267227409678355 H 0.0 **** 0.06
33840 H 4.044497811786059 59.62745624628457 62.65972544711917 H 0.0 **** 0.06
33841 C 4.381592680497306 54.44470343843372 1.4161280647770695 C 0.0 **** -0.24
33842 H 3.74964410451517 55.14489222251066 0.8707315627903256 H 0.0 **** 0.06
33843 H 4.494273230221978 53.52886848959241 0.8359322609890683 H 0.0 **** 0.06
33844 H 3.921006985827347 54.21274925418038 2.3768376183836324 H 0.0 **** 0.06
33845 H 5.36143283650739 54.893094722624625 1.582183138616216 H 0.0 **** 0.06
33846 C 70.59095826553758 78.39935206833937 72.47586202070926 C 0.0 **** -0.24
33847 H 70.08967012380735 78.49557757665066 73.43888256826563 H 0.0 **** 0.06
33848 H 71.28547446509167 77.5599183229491 72.51060353451123 H 0.0 **** 0.06
33849 H 71.13773571073668 79.31638966017974 72.2580107499573 H 0.0 **** 0.06
33850 H 69.84872686728416 78.22492217212248 71.69677890277285 H 0.0 **** 0.06
33851 C 33.32280718896008 14.12448871506075 71.96876608957518 C 0.0 **** -0.24
33852 H 34.32695331688666 14.061255578563816 72.38649421976857 H 0.0 **** 0.06
33853 H 32.87012093456778 15.074292365085455 72.25464184434855 H 0.0 **** 0.06
33854 H 32.717007746313556 13.303357749469683 72.35257688594464 H 0.0 **** 0.06
33855 H 33.37597838191737 14.058842178738587 70.88261323382176 H 0.0 **** 0.06
33856 C 17.51199915961689 43.61099896332155 27.422259239790435 C 0.0 **** -0.24
33857 H 17.682078611713052 44.16424032455774 26.49811111543417 H 0.0 **** 0.06
33858 H 17.549738763921937 44.29745849089733 28.267910914371924 H 0.0 **** 0.06
33859 H 18.284461539505344 42.85018097634361 27.537353238911265 H 0.0 **** 0.06
33860 H 16.533027710641818 43.13389272407727 27.38459975591597 H 0.0 **** 0.06
33861 C 101.92852005360739 67.90050239368058 40.65115512998408 C 0.0 **** -0.24
33862 H 102.84634978538733 67.58942234114605 40.153396696606286 H 0.0 **** 0.06
33863 H 101.12352225043576 67.21249851541916 40.39294411315113 H 0.0 **** 0.06
33864 H 101.66308607723683 68.907741651606 40.32826092007394 H 0.0 **** 0.06
33865 H 102.0803723166833 67.89520623095459 41.73053206813597 H 0.0 **** 0.06
33866 C 67.32511835195032 66.27931667350833 40.94093451778996 C 0.0 **** -0.24
33867 H 67.4436826345329 66.31944054007278 42.02375967532598 H 0.0 **** 0.06
33868 H 66.27948732199248 66.09612129890746 40.695924564963185 H 0.0 **** 0.06
33869 H 67.9398298289481 65.47450555413397 40.538800766718076 H 0.0 **** 0.06
33870 H 67.63938564633786 67.22858080485648 40.505913301022005 H 0.0 **** 0.06
33871 C 17.730139358620505 61.57998544003715 46.878434348277224 C 0.0 **** -0.24
33872 H 16.81886673284083 61.06921482022389 47.19032748914133 H 0.0 **** 0.06
33873 H 18.339382332307224 61.80110726082697 47.754606622108625 H 0.0 **** 0.06
33874 H 17.46965794233907 62.510220955457385 46.37290385271129 H 0.0 **** 0.06
33875 H 18.29021471027687 60.93972594160232 46.19762008744341 H 0.0 **** 0.06
33876 C 2.100147960400321 99.79094071868698 28.489602297165135 C 0.0 **** -0.24
33877 H 2.1895407041063777 99.6707667764694 27.410211791686407 H 0.0 **** 0.06
33878 H 1.086416102081344 100.10572330221746 28.73728833961954 H 0.0 **** 0.06
33879 H 2.8092730615592814 100.54689673175065 28.830263336023535 H 0.0 **** 0.06
33880 H 2.3173894144431983 98.84242741759468 28.979819956921688 H 0.0 **** 0.06
33881 C 4.218717412647152 108.41282868414802 99.78259104913509 C 0.0 **** -0.24
33882 H 3.357008168594234 108.35225866102044 100.44864079940697 H 0.0 **** 0.06
33883 H 4.20790743601367 109.37105330963331 99.26142837321845 H 0.0 **** 0.06
33884 H 4.172687375905923 107.60294044756404 99.05525896623666 H 0.0 **** 0.06
33885 H 5.135814063363313 108.32647878440454 100.36597616890191 H 0.0 **** 0.06
33886 C 35.79331385432718 52.4679950349244 43.77259688202838 C 0.0 **** -0.24
33887 H 36.18663396775355 51.946244120782126 42.90042145287117 H 0.0 **** 0.06
33888 H 36.61539996390252 52.72982971898173 44.44012130287854 H 0.0 **** 0.06
33889 H 35.09187499510523 51.82059359896803 44.29761647530643 H 0.0 **** 0.06
33890 H 35.28152255523872 53.37568859654337 43.45258000199169 H 0.0 **** 0.06
33891 C 99.72828981153759 37.71582841995897 59.62788136078967 C 0.0 **** -0.24
33892 H 100.01539361798143 36.78354897837096 60.11322776310834 H 0.0 **** 0.06
33893 H 99.4073612339148 38.43448818719094 60.38255398108265 H 0.0 **** 0.06
33894 H 98.9102636823128 37.527201102060786 58.93384127910798 H 0.0 **** 0.06
33895 H 100.58269095406934 38.11938220860026 59.08279067702307 H 0.0 **** 0.06
33896 C 39.41801392803657 25.03827137587241 97.24298207850268 C 0.0 **** -0.24
33897 H 40.18368534690899 25.724123414663364 96.87948376366376 H 0.0 **** 0.06
33898 H 38.43198164863142 25.438141294920953 97.00905460680016 H 0.0 **** 0.06
33899 H 39.517943434702104 24.921758748104814 98.32233959885659 H 0.0 **** 0.06
33900 H 39.5402925756278 24.068532122687838 96.75953146712607 H 0.0 **** 0.06
33901 C 65.88099194201376 43.161470380359106 37.91849091639026 C 0.0 **** -0.24
33902 H 65.22077250072496 43.96078103369052 38.254940756230226 H 0.0 **** 0.06
33903 H 66.86211859777228 43.57500309391412 37.686013197126464 H 0.0 **** 0.06
33904 H 65.46157328735569 42.69642544640834 37.026245466821386 H 0.0 **** 0.06
33905 H 65.97764246615645 42.414865203191425 38.706427520671824 H 0.0 **** 0.06
33906 C 8.467898178480993 63.03956957651151 33.030028160118746 C 0.0 **** -0.24
33907 H 7.921741476346796 63.636147089926595 32.29963864980661 H 0.0 **** 0.06
33908 H 8.337917587040039 61.98104257143464 32.8042243289097 H 0.0 **** 0.06
33909 H 8.082986461180553 63.247397439613394 34.02926955636819 H 0.0 **** 0.06
33910 H 9.526200191668664 63.293395179370535 32.98851857062019 H 0.0 **** 0.06
33911 C 25.073022875705902 46.354565915780235 61.588058283416885 C 0.0 **** -0.24
33912 H 25.69814328502966 47.02777836078936 61.00102230954943 H 0.0 **** 0.06
33913 H 24.685961456149414 46.88457788977126 62.45886282136932 H 0.0 **** 0.06
33914 H 25.666742920294325 45.5009886099868 61.914792136748716 H 0.0 **** 0.06
33915 H 24.241104619552402 46.00558453652097 60.976315899808014 H 0.0 **** 0.06
33916 C 70.62836248831387 83.60173635199334 100.27862515382122 C 0.0 **** -0.24
33917 H 70.15128109502791 82.62217336714349 100.25373704532274 H 0.0 **** 0.06
33918 H 70.20661949470197 84.19199387671071 101.09211739750344 H 0.0 **** 0.06
33919 H 70.45820436691181 84.11386502777344 99.33158388457088 H 0.0 **** 0.06
33920 H 71.70032352315779 83.47861720036121 100.43685917703903 H 0.0 **** 0.06
33921 C 56.326952573689425 30.19239340558815 31.138561584066082 C 0.0 **** -0.24
33922 H 56.14494702616798 29.545129051721517 31.995899626236735 H 0.0 **** 0.06
33923 H 56.259150751398465 31.23501917321704 31.449897701713127 H 0.0 **** 0.06
33924 H 55.581410031160544 29.994381684299725 30.368850354520447 H 0.0 **** 0.06
33925 H 57.32167528903284 29.995490733403614 30.73896080815132 H 0.0 **** 0.06
33926 C 42.11302599708384 49.25864838966662 34.524540543713385 C 0.0 **** -0.24
33927 H 41.726059588172106 50.19084119530382 34.111001687446674 H 0.0 **** 0.06
33928 H 41.30046783377156 48.70515759405447 34.99460636373618 H 0.0 **** 0.06
33929 H 42.879093049517195 49.48133676597218 35.26650269396913 H 0.0 **** 0.06
33930 H 42.54665390105008 48.65927794247918 33.72306957311585 H 0.0 **** 0.06
33931 C 80.62635426230403 44.06120906059641 110.57406534259144 C 0.0 **** -0.24
33932 H 81.0217271769921 43.24747839715175 109.96518156591071 H 0.0 **** 0.06
33933 H 81.40183700037241 44.81275746914571 110.72303265037908 H 0.0 **** 0.06
33934 H 80.30911742341065 43.669694825659576 111.54032881483533 H 0.0 **** 0.06
33935 H 79.77360639835271 44.51210844657402 110.0670717259278 H 0.0 **** 0.06
33936 C 101.6208719272393 102.13089881998349 97.60380193854758 C 0.0 **** -0.24
33937 H 102.52714030661919 101.54503616224605 97.45193924294432 H 0.0 **** 0.06
33938 H 101.86357656782657 103.03794088184867 98.1582195905405 H 0.0 **** 0.06
33939 H 100.8986862777612 101.54148680842798 98.1690515456839 H 0.0 **** 0.06
33940 H 101.19475893732863 102.3982478278756 96.63687176809836 H 0.0 **** 0.06
33941 C 44.08536770897956 28.892711682187525 109.41785535553643 C 0.0 **** -0.24
33942 H 44.60184232432607 29.680947018785645 108.8708419036826 H 0.0 **** 0.06
33943 H 44.23098068926862 29.038773470491492 110.48888085602101 H 0.0 **** 0.06
33944 H 44.48781522188557 27.92330080024101 109.12498124837337 H 0.0 **** 0.06
33945 H 43.02022162923555 28.928903466789677 109.18857881734588 H 0.0 **** 0.06
33946 C 14.630143999717461 57.401091480047285 22.451858479044233 C 0.0 **** -0.24
33947 H 14.115794398672932 57.80370102819262 23.325631260323348 H 0.0 **** 0.06
33948 H 13.936022193215592 56.79316795514853 21.871124750211948 H 0.0 **** 0.06
33949 H 15.468586381401366 56.78533190556868 22.776701870555257 H 0.0 **** 0.06
33950 H 14.997894128999633 58.22216237823403 21.836943749227316 H 0.0 **** 0.06
33951 C 108.78946163136479 63.44925737332693 45.967234961333816 C 0.0 **** -0.24
33952 H 108.949992443681 62.43164322344137 45.611605918853286 H 0.0 **** 0.06
33953 H 108.3994304136528 63.42099883459633 46.98457356073811 H 0.0 **** 0.06
33954 H 108.07209028943232 63.95175641925027 45.31687898318299 H 0.0 **** 0.06
33955 H 109.73415514446397 63.99236258290932 45.95409710636898 H 0.0 **** 0.06
33956 C 92.32653823414853 82.51554723257192 93.72984825746224 C 0.0 **** -0.24
33957 H 91.53579782698893 83.24845892559196 93.56959910499751 H 0.0 **** 0.06
33958 H 91.92816536075134 81.66954452784904 94.28975199886298 H 0.0 **** 0.06
33959 H 93.13843638350559 82.97503399907646 94.29344210974236 H 0.0 **** 0.06
33960 H 92.7022932495527 82.16969786119648 92.76735458630856 H 0.0 **** 0.06
33961 C 7.5632166252320445 62.49279093876015 45.12979455366167 C 0.0 **** -0.24
33962 H 8.438712583095977 63.01575149928641 44.745270434171346 H 0.0 **** 0.06
33963 H 6.661491616584243 63.03806352998794 44.84790160966236 H 0.0 **** 0.06
33964 H 7.6253413373236185 62.4301720969701 46.21612605105918 H 0.0 **** 0.06
33965 H 7.525991083123245 61.48740493789768 44.709456572160434 H 0.0 **** 0.06
33966 C 11.931654999328131 91.40784727831848 100.80287161171563 C 0.0 **** -0.24
33967 H 12.511215913505112 91.40000923703562 101.72547954369452 H 0.0 **** 0.06
33968 H 11.26990201354856 90.54108759111801 100.78190881193348 H 0.0 **** 0.06
33969 H 12.607727590941806 91.36956428861843 99.9484542553883 H 0.0 **** 0.06
33970 H 11.336955596081523 92.3201817602146 100.75546746566107 H 0.0 **** 0.06
33971 C 57.73039197360217 35.87448398329282 6.581011004473035 C 0.0 **** -0.24
33972 H 56.993053822331376 35.08721509078185 6.425351592305352 H 0.0 **** 0.06
33973 H 58.68940490629922 35.561480444695555 6.166355982061461 H 0.0 **** 0.06
33974 H 57.84063397530002 36.06228075810262 7.649842558393367 H 0.0 **** 0.06
33975 H 57.39954600848654 36.786143592447715 6.084279289074864 H 0.0 **** 0.06
33976 C 76.45179509899285 92.88575139640392 80.246015991009 C 0.0 **** -0.24
33977 H 76.5389471402266 92.2246291697968 79.38320042173841 H 0.0 **** 0.06
33978 H 76.79417501874019 93.88429098370516 79.97429661987039 H 0.0 **** 0.06
33979 H 77.06316377406488 92.5005006776795 81.06175549258148 H 0.0 **** 0.06
33980 H 75.40932784589367 92.93187528995571 80.56290777685105 H 0.0 **** 0.06
33981 C 13.065982445223927 85.71432041793432 31.334765523022327 C 0.0 **** -0.24
33982 H 12.325094756632591 86.30040064274499 30.78995528900937 H 0.0 **** 0.06
33983 H 13.647076893199216 85.11900719193036 30.629499469712542 H 0.0 **** 0.06
33984 H 12.559725873194456 85.0536232205464 32.038387735775416 H 0.0 **** 0.06
33985 H 13.73039759664836 86.38552315286529 31.879049577677876 H 0.0 **** 0.06
33986 C 43.23215588205039 26.72930401227933 24.915135588549447 C 0.0 **** -0.24
33987 H 43.01232000354429 27.049932785991302 23.89670192865836 H 0.0 **** 0.06
33988 H 43.22544307768288 27.595703602828394 25.57789083131081 H 0.0 **** 0.06
33989 H 44.21389715502693 26.257372114356258 24.94415372081488 H 0.0 **** 0.06
33990 H 42.47548803198208 26.016707482149087 25.24255375169605 H 0.0 **** 0.06
33991 C 74.29195916495192 35.81243580582611 106.39744093882516 C 0.0 **** -0.24
33992 H 73.72661415972998 34.93550894576924 106.71264092635553 H 0.0 **** 0.06
33993 H 74.99510023712854 35.52826029911182 105.61413915977037 H 0.0 **** 0.06
33994 H 74.83967485242174 36.21638791830003 107.24962343851575 H 0.0 **** 0.06
33995 H 73.60735042899844 36.56862527985004 106.01486411230886 H 0.0 **** 0.06
33996 C 34.2037615778071 64.49492628630787 9.035594534133395 C 0.0 **** -0.24
33997 H 34.63567214071386 65.42805315550675 9.399789995836173 H 0.0 **** 0.06
33998 H 34.0086625106583 64.57840868624197 7.966766792794601 H 0.0 **** 0.06
33999 H 33.26966447148021 64.29930777797074 9.561453534415932 H 0.0 **** 0.06
34000 H 34.90067415385718 63.67785301282339 9.21624267179834 H 0.0 **** 0.06
34001 C 30.742569330364006 36.913688550864066 41.793493621489546 C 0.0 **** -0.24
34002 H 30.97424927328852 36.21559258434516 40.98903469734299 H 0.0 **** 0.06
34003 H 31.66926588683593 37.32033559420819 42.19868051208806 H 0.0 **** 0.06
34004 H 30.199133804973656 36.3923767162762 42.58221320800436 H 0.0 **** 0.06
34005 H 30.128176638523925 37.7259605694224 41.40525463015186 H 0.0 **** 0.06
34006 C 33.936358841191634 97.55153990300734 59.03707682577836 C 0.0 **** -0.24
34007 H 34.11872335705448 97.41908260865038 57.97056710361908 H 0.0 **** 0.06
34008 H 32.86281784199497 97.53269371051194 59.22670886740656 H 0.0 **** 0.06
34009 H 34.34572533009123 98.50849898557873 59.35951609824295 H 0.0 **** 0.06
34010 H 34.41767054801545 96.74495359288721 59.590574180861964 H 0.0 **** 0.06
34011 C 45.09143935708221 101.01061560007584 72.12396366676612 C 0.0 **** -0.24
34012 H 45.63528255642805 101.42044825604897 72.97409154956303 H 0.0 **** 0.06
34013 H 44.486914993835626 100.16531552696381 72.45235793963928 H 0.0 **** 0.06
34014 H 45.79990414002913 100.67871147783188 71.36569129860452 H 0.0 **** 0.06
34015 H 44.44321202638008 101.78000145042208 71.70285021109437 H 0.0 **** 0.06
34016 C 14.721745463353088 64.19401397630412 71.63861111695572 C 0.0 **** -0.24
34017 H 14.113094802219138 63.4816230250554 72.19521889652911 H 0.0 **** 0.06
34018 H 15.132699601915604 64.93504171477662 72.32448015302971 H 0.0 **** 0.06
34019 H 14.104500703027128 64.69254342943975 70.89071201890495 H 0.0 **** 0.06
34020 H 15.537037339797408 63.66613983423437 71.142860343568 H 0.0 **** 0.06
34021 C 40.74189483538899 102.50877688750052 89.53877072857796 C 0.0 **** -0.24
34022 H 41.732286056161456 102.90867044591069 89.75925013535942 H 0.0 **** 0.06
34023 H 40.53651432054261 101.66527948650591 90.19795409829169 H 0.0 **** 0.06
34024 H 40.70694936215898 102.1770281258203 88.50154449710945 H 0.0 **** 0.06
34025 H 39.993487046416135 103.28447814010902 89.69810382371281 H 0.0 **** 0.06
34026 C 4.822655255035045 3.573402932617668 63.123453960321115 C 0.0 **** -0.24
34027 H 4.952747776460228 2.4908928188009014 63.10968576033446 H 0.0 **** 0.06
34028 H 5.784521239441858 4.05581986362715 62.94472356923558 H 0.0 **** 0.06
34029 H 4.4360543261500425 3.8811317793716 64.09463899572813 H 0.0 **** 0.06
34030 H 4.119292157060727 3.8647708518260515 62.34375286887342 H 0.0 **** 0.06
34031 C 12.377823038447389 45.850123802828755 59.89497863549758 C 0.0 **** -0.24
34032 H 12.853230727442934 46.82163674472397 59.756725577455484 H 0.0 **** 0.06
34033 H 13.140607707214826 45.07168392911206 59.91678810699253 H 0.0 **** 0.06
34034 H 11.689754059218501 45.66256663989844 59.07173745955731 H 0.0 **** 0.06
34035 H 11.827672775959257 45.846383623198825 60.83708135751249 H 0.0 **** 0.06
34036 C 47.179611542785096 52.04729539683575 0.6275529348292821 C 0.0 **** -0.24
34037 H 47.66462880033498 51.95734012275972 -0.34410029920356067 H 0.0 **** 0.06
34038 H 46.111263565373065 51.85936333436905 0.5199942136874967 H 0.0 **** 0.06
34039 H 47.33520106360456 53.052512111101294 1.0187510561901405 H 0.0 **** 0.06
34040 H 47.60949418167317 51.31942526710344 1.3166260723371295 H 0.0 **** 0.06
34041 C 63.77448161830284 82.07855777392263 108.68811962735927 C 0.0 **** -0.24
34042 H 64.12643471295058 83.03468684864563 108.30296529762919 H 0.0 **** 0.06
34043 H 63.749737132586915 82.11220256617304 109.77749536113174 H 0.0 **** 0.06
34044 H 64.44859869848273 81.28598485102589 108.36345356596487 H 0.0 **** 0.06
34045 H 62.77204709508095 81.88041103892851 108.30762827333947 H 0.0 **** 0.06
34046 C 107.66075682779962 80.6533172065761 46.30845998583379 C 0.0 **** -0.24
34047 H 106.58504071681307 80.81198275985719 46.219815031702524 H 0.0 **** 0.06
34048 H 108.01508264500919 80.08772364187348 45.446793660033336 H 0.0 **** 0.06
34049 H 107.87089986117383 80.09636294038978 47.220888350917164 H 0.0 **** 0.06
34050 H 108.16747940882544 81.61744229877922 46.34513070279763 H 0.0 **** 0.06
34051 C 33.00747833570756 71.01197336220432 40.96779280778662 C 0.0 **** -0.24
34052 H 33.821808559732744 71.60261441605729 40.54782236030269 H 0.0 **** 0.06
34053 H 32.97350018202303 71.15749462212035 42.04812185354092 H 0.0 **** 0.06
34054 H 33.17363705946963 69.95766659804389 40.748691893136765 H 0.0 **** 0.06
34055 H 32.0628757285981 71.33072376810343 40.52794648591521 H 0.0 **** 0.06
34056 C 53.20195320690075 39.65923925477463 105.85504800522214 C 0.0 **** -0.24
34057 H 53.59170509608924 40.48300940025621 105.25851061620212 H 0.0 **** 0.06
34058 H 52.27609053920922 39.968295956474975 106.34167114457405 H 0.0 **** 0.06
34059 H 53.935639502036786 39.38152343334261 106.61308175901368 H 0.0 **** 0.06
34060 H 53.00563322493033 38.80381274503583 105.20900802129061 H 0.0 **** 0.06
34061 C 36.83510992618966 16.48752450485409 33.64356411101494 C 0.0 **** -0.24
34062 H 37.51850688713557 17.246865121787792 34.023695870273286 H 0.0 **** 0.06
34063 H 36.350003451166884 16.855405551625147 32.73967586914287 H 0.0 **** 0.06
34064 H 36.08077173693093 16.26697364146044 34.39794920992364 H 0.0 **** 0.06
34065 H 37.39329561599061 15.580376409323556 33.412486657850366 H 0.0 **** 0.06
34066 C 67.26538371481382 71.08386742626482 84.20540135737983 C 0.0 **** -0.24
34067 H 67.95133541832814 70.50843923389712 84.82736390197245 H 0.0 **** 0.06
34068 H 66.98945642658089 70.49537892940447 83.33002076312627 H 0.0 **** 0.06
34069 H 67.75110391031444 72.00538754718521 83.88532283010791 H 0.0 **** 0.06
34070 H 66.37058007126203 71.32425209084631 84.77863894501421 H 0.0 **** 0.06
34071 C 69.67177370417058 83.89509653329515 30.48552542082532 C 0.0 **** -0.24
34072 H 68.62046135216286 83.97779150817644 30.758702180464695 H 0.0 **** 0.06
34073 H 69.84800038348402 84.4308402226975 29.55216662297598 H 0.0 **** 0.06
34074 H 69.93259461980472 82.84435650764942 30.355588422021796 H 0.0 **** 0.06
34075 H 70.2868725146478 84.32764479578657 31.274529336641827 H 0.0 **** 0.06
34076 C 71.24097872684364 3.882114343517557 40.192244735589554 C 0.0 **** -0.24
34077 H 71.66459221476951 4.881668863917113 40.094081045937 H 0.0 **** 0.06
34078 H 70.2682916581972 3.9471126877254505 40.679786334292885 H 0.0 **** 0.06
34079 H 71.90776290997619 3.263274480205496 40.7922878873793 H 0.0 **** 0.06
34080 H 71.12461115428825 3.4389344089202183 39.20370701862561 H 0.0 **** 0.06
34081 C 13.88578665647995 56.48154470033498 60.362327977353274 C 0.0 **** -0.24
34082 H 14.881374076671477 56.778257800255254 60.69137619095079 H 0.0 **** 0.06
34083 H 13.867533538449308 56.41653001556689 59.274081367734496 H 0.0 **** 0.06
34084 H 13.158429681566162 57.22206077795222 60.69464332263307 H 0.0 **** 0.06
34085 H 13.636785441085834 55.51072890846431 60.78951267735813 H 0.0 **** 0.06
34086 C 19.328395038450708 81.58041728559249 35.76044743248562 C 0.0 **** -0.24
34087 H 19.630516573541684 81.87688020710868 34.756232803305295 H 0.0 **** 0.06
34088 H 19.89741227675114 82.1524032030963 36.494322282703706 H 0.0 **** 0.06
34089 H 19.52308672118329 80.5160157470435 35.89881412150743 H 0.0 **** 0.06
34090 H 18.2639921301826 81.77497182994205 35.89250695345129 H 0.0 **** 0.06
34091 C 50.44507905037153 51.68920089105958 28.603698967281673 C 0.0 **** -0.24
34092 H 49.58035934945088 51.198139886883155 28.15867581992211 H 0.0 **** 0.06
34093 H 50.1168692255398 52.56506192723456 29.165056769587466 H 0.0 **** 0.06
34094 H 51.132209330756986 51.99934911320319 27.815749193958936 H 0.0 **** 0.06
34095 H 50.951619307827286 50.996579253832145 29.275509166360735 H 0.0 **** 0.06
34096 C 110.26749011649758 61.048324928295074 12.64647939170797 C 0.0 **** -0.24
34097 H 109.34418900623697 61.225190627803954 12.094302477821316 H 0.0 **** 0.06
34098 H 110.94893863178672 60.456902463478684 12.034458843003023 H 0.0 **** 0.06
34099 H 110.04277528991975 60.50811164018842 13.566585159019866 H 0.0 **** 0.06
34100 H 110.7330497895868 62.00403153786641 12.89024335819667 H 0.0 **** 0.06
34101 C 58.834562035288116 20.91969384408179 81.90911746970738 C 0.0 **** -0.24
34102 H 58.272657677191916 20.03715126570259 81.60500109178793 H 0.0 **** 0.06
34103 H 58.157012602387624 21.76896987929952 81.99656292753804 H 0.0 **** 0.06
34104 H 59.59857708223342 21.13957629205555 81.1630541494597 H 0.0 **** 0.06
34105 H 59.310362866701524 20.73399947392626 82.87171129317855 H 0.0 **** 0.06
34106 C 47.05411973462003 92.70192776081353 25.100946994569142 C 0.0 **** -0.24
34107 H 46.77647709272757 93.73630576667404 25.306260146089016 H 0.0 **** 0.06
34108 H 47.64692890127324 92.3147084969039 25.92922969434119 H 0.0 **** 0.06
34109 H 47.63899244142406 92.65961677663648 24.18207407962234 H 0.0 **** 0.06
34110 H 46.152930344694425 92.10002495589742 24.986154121203015 H 0.0 **** 0.06
34111 C 36.225529570134 78.99356111943627 53.32528110494337 C 0.0 **** -0.24
34112 H 36.38708261050388 77.91692409220639 53.298189559208936 H 0.0 **** 0.06
34113 H 35.519508509839085 79.27454167779223 52.54293208463713 H 0.0 **** 0.06
34114 H 37.172792456152166 79.50778009524373 53.16282925887589 H 0.0 **** 0.06
34115 H 35.82197296954308 79.27654817756368 54.29731048240933 H 0.0 **** 0.06
34116 C 73.19705214868029 29.105257210051583 81.84944946641137 C 0.0 **** -0.24
34117 H 72.36695049913538 29.812069250298705 81.85077260022031 H 0.0 **** 0.06
34118 H 74.1176697475679 29.625688120340733 82.11204154105869 H 0.0 **** 0.06
34119 H 73.29776010860428 28.664503196777304 80.85798211760722 H 0.0 **** 0.06
34120 H 73.00384438902279 28.317215350835077 82.57915876324032 H 0.0 **** 0.06
34121 C 101.01211747876073 70.11982780919851 1.8922930312535478 C 0.0 **** -0.24
34122 H 100.95086221462577 71.03684173703792 1.3058469511719544 H 0.0 **** 0.06
34123 H 102.05745360578715 69.89824200447757 2.110253822260815 H 0.0 **** 0.06
34124 H 100.57685549624728 69.2968407383051 1.3248143495330416 H 0.0 **** 0.06
34125 H 100.4640234597664 70.24845320877347 2.8255481814510173 H 0.0 **** 0.06
34126 C 90.26759920496825 63.47281301079573 26.416813427110583 C 0.0 **** -0.24
34127 H 89.34122327357548 63.572113536823906 26.98329803682455 H 0.0 **** 0.06
34128 H 90.1277144032562 62.745158143398214 25.61649633926322 H 0.0 **** 0.06
34129 H 91.06438649918024 63.13626454881262 27.07888803817241 H 0.0 **** 0.06
34130 H 90.53559889900345 64.43890405005317 25.987381158511226 H 0.0 **** 0.06
34131 C 74.9591740788664 80.53937795092561 57.92611944508606 C 0.0 **** -0.24
34132 H 75.70301165491844 80.94532481374453 58.61230060082816 H 0.0 **** 0.06
34133 H 73.97263924685336 80.59316256122688 58.38695997453194 H 0.0 **** 0.06
34134 H 75.20016731848796 79.5002983088757 57.7025361939637 H 0.0 **** 0.06
34135 H 74.96197976548405 81.12042995845049 57.00362096209749 H 0.0 **** 0.06
34136 C 72.73907421566594 94.23094278016315 81.74788017812114 C 0.0 **** -0.24
34137 H 71.82457670932274 94.00367847227793 82.29498065826058 H 0.0 **** 0.06
34138 H 73.03109875050086 93.36393836539308 81.15335443022101 H 0.0 **** 0.06
34139 H 73.53426803754951 94.47268816528549 82.453090562229 H 0.0 **** 0.06
34140 H 72.56601725363919 95.08152637036152 81.08903456159757 H 0.0 **** 0.06
34141 C 92.06303231639178 89.06930202035713 103.71307446384822 C 0.0 **** -0.24
34142 H 90.97320296176775 89.0978854972203 103.73451600752537 H 0.0 **** 0.06
34143 H 92.42489704867847 89.67548837720244 102.88253924314853 H 0.0 **** 0.06
34144 H 92.396346212826 88.04024054602272 103.58479749498719 H 0.0 **** 0.06
34145 H 92.45436609455864 89.46456943385184 104.65022986950999 H 0.0 **** 0.06
34146 C 74.904086476873 45.38390559395663 89.38446741199253 C 0.0 **** -0.24
34147 H 75.3659850022369 45.869093175940634 90.24380928241209 H 0.0 **** 0.06
34148 H 74.04924385030267 44.79381986121405 89.71557414409104 H 0.0 **** 0.06
34149 H 75.6315794254312 44.73019778894201 88.90324932248583 H 0.0 **** 0.06
34150 H 74.57131579112445 46.14117342854445 88.67545558687081 H 0.0 **** 0.06
34151 C 31.970629444069004 61.07459741618027 9.490381014317876 C 0.0 **** -0.24
34152 H 31.020677444581793 61.033623223397115 10.023439222048282 H 0.0 **** 0.06
34153 H 32.777536424387904 60.78553692105004 10.165389901014905 H 0.0 **** 0.06
34154 H 32.14231865808006 62.0889089767216 9.131615702187034 H 0.0 **** 0.06
34155 H 31.942337079743595 60.38861085573558 8.644388897675228 H 0.0 **** 0.06
34156 C 34.959042604327124 89.44140362087205 50.21050597262058 C 0.0 **** -0.24
34157 H 35.7090249873948 90.14623619962117 49.85206605482881 H 0.0 **** 0.06
34158 H 35.36473537365413 88.87450289550702 51.04903487857206 H 0.0 **** 0.06
34159 H 34.6886505186763 88.75875936663658 49.405734199319454 H 0.0 **** 0.06
34160 H 34.073811119016824 89.98920296910018 50.53587329996219 H 0.0 **** 0.06
34161 C 91.74805893877277 25.651727268492834 35.79832734225523 C 0.0 **** -0.24
34162 H 92.53861326241093 25.174830549674766 35.21900523096496 H 0.0 **** 0.06
34163 H 90.82677953117759 25.66102153153824 35.215425440171224 H 0.0 **** 0.06
34164 H 92.03822104588988 26.674754565228085 36.03643404501367 H 0.0 **** 0.06
34165 H 91.58852477606438 25.094628448527487 36.72201047659624 H 0.0 **** 0.06
34166 C 37.60368957341143 97.94406503849287 47.253957805701305 C 0.0 **** -0.24
34167 H 37.4012502220865 98.0089398017525 48.32327503291657 H 0.0 **** 0.06
34168 H 36.721068721297655 98.26086235584873 46.69727056662268 H 0.0 **** 0.06
34169 H 37.84798189432834 96.91401736406031 46.99381016540343 H 0.0 **** 0.06
34170 H 38.4437536584058 98.59121887302892 47.003211034045336 H 0.0 **** 0.06
34171 C 0.08971149932159239 30.06817871682314 15.99018651418723 C 0.0 **** -0.24
34172 H -0.01232573697563133 29.03105158180243 15.670104556218504 H 0.0 **** 0.06
34173 H -0.17847898470025392 30.730255261036433 15.167824569756988 H 0.0 **** 0.06
34174 H 1.1220144268420738 30.25568693514589 16.287306212731096 H 0.0 **** 0.06
34175 H -0.5705463787234528 30.253238234236306 16.837639907868592 H 0.0 **** 0.06
34176 C 103.17923440976712 5.611374092064295 84.77886536100357 C 0.0 **** -0.24
34177 H 103.43097905262991 4.585874573545084 84.50737109618944 H 0.0 **** 0.06
34178 H 102.57922333323924 6.059417313180376 83.9862489614768 H 0.0 **** 0.06
34179 H 104.09423058932268 6.187238614371495 84.91122731704729 H 0.0 **** 0.06
34180 H 102.6117910365559 5.611501319388793 85.70908237505625 H 0.0 **** 0.06
34181 C 91.89054668824048 27.327444996590252 39.37672016646021 C 0.0 **** -0.24
34182 H 91.26585087150033 28.161764246640935 39.69735751546338 H 0.0 **** 0.06
34183 H 91.6024046465705 26.42838626489877 39.921244986246975 H 0.0 **** 0.06
34184 H 92.93617213277463 27.55786876613619 39.580904026671625 H 0.0 **** 0.06
34185 H 91.75589179615685 27.164089903831844 38.30767157807116 H 0.0 **** 0.06
34186 C 76.8155929940632 82.65383994983215 72.42940097722021 C 0.0 **** -0.24
34187 H 75.82576886947538 82.20102267917157 72.49625538614328 H 0.0 **** 0.06
34188 H 77.14820928551433 82.64732095056348 71.39162083912129 H 0.0 **** 0.06
34189 H 77.51604845106999 82.08541394027374 73.0404711110329 H 0.0 **** 0.06
34190 H 76.76910834549204 83.68149782698482 72.78997164201337 H 0.0 **** 0.06
34191 C 74.47173097215956 29.419197465851994 10.987321160731181 C 0.0 **** -0.24
34192 H 73.38583801677922 29.49949146232359 11.050852043046088 H 0.0 **** 0.06
34193 H 74.92042270599127 29.86025397230793 11.877677630007714 H 0.0 **** 0.06
34194 H 74.82425614802601 29.946816501370705 10.101925311937972 H 0.0 **** 0.06
34195 H 74.75455667786872 28.36839755038335 10.920321775366595 H 0.0 **** 0.06
34196 C 56.83102302342828 34.35494307216402 2.72558000845544 C 0.0 **** -0.24
34197 H 55.748351942550606 34.23072870136059 2.730759668741946 H 0.0 **** 0.06
34198 H 57.09612294118687 35.20888318535674 2.1021266800885083 H 0.0 **** 0.06
34199 H 57.29798958970452 33.454404557215014 2.3258383706859256 H 0.0 **** 0.06
34200 H 57.18277814124346 34.524498488788595 3.743286270009852 H 0.0 **** 0.06
34201 C 0.2701909749941649 89.60382546798309 67.71090657160921 C 0.0 **** -0.24
34202 H 0.19184586885783972 89.84818211531308 66.65133655180627 H 0.0 **** 0.06
34203 H -0.5906621447389426 89.00609788990283 68.0104184711714 H 0.0 **** 0.06
34204 H 0.29434585694549753 90.52377273404898 68.29477238255595 H 0.0 **** 0.06
34205 H 1.1852196202833483 89.03724275285731 67.88609898414562 H 0.0 **** 0.06
34206 C 7.525239695578136 84.91531049458085 109.29638518306662 C 0.0 **** -0.24
34207 H 8.219270437607065 85.74625139530428 109.42559167389685 H 0.0 **** 0.06
34208 H 7.362688479240802 84.42655259918273 110.25727049304854 H 0.0 **** 0.06
34209 H 7.943843865539975 84.1985519131425 108.58996504494588 H 0.0 **** 0.06
34210 H 6.576288241870174 85.29077700549384 108.91469457186999 H 0.0 **** 0.06
34211 C 12.268724411575093 13.76700529899503 1.8500365380591006 C 0.0 **** -0.24
34212 H 12.359534159699436 14.69181690545458 2.419266531992662 H 0.0 **** 0.06
34213 H 11.581388677491876 13.920341474036789 1.0165700037182432 H 0.0 **** 0.06
34214 H 11.885785486083172 12.977613486359164 2.4967142559339095 H 0.0 **** 0.06
34215 H 13.247782815956693 13.479493416971074 1.4648958324048635 H 0.0 **** 0.06
34216 C 45.23133372287748 72.05065164997949 105.59947465159473 C 0.0 **** -0.24
34217 H 44.72812871102627 72.87443778561408 106.10649130901407 H 0.0 **** 0.06
34218 H 44.74354442574224 71.85993347400989 104.64344697380272 H 0.0 **** 0.06
34219 H 45.17906509517951 71.15625684662943 106.22050417634551 H 0.0 **** 0.06
34220 H 46.27598005734541 72.31342565173777 105.42845223730848 H 0.0 **** 0.06
34221 C 4.845553365719708 83.99879252146471 50.80794637577345 C 0.0 **** -0.24
34222 H 3.786514773544539 84.25408796523898 50.832506306674425 H 0.0 **** 0.06
34223 H 5.427212402169811 84.88663549321058 50.559379747966965 H 0.0 **** 0.06
34224 H 5.015427752335389 83.22993479956455 50.05385469981832 H 0.0 **** 0.06
34225 H 5.15182207836617 83.62367137957703 51.784381897614956 H 0.0 **** 0.06
34226 C 32.60340000442843 98.77063985743425 85.22401385672062 C 0.0 **** -0.24
34227 H 32.54524703810137 99.62388748226849 85.9002360720682 H 0.0 **** 0.06
34228 H 32.024326164590875 97.94240383974235 85.63438734453845 H 0.0 **** 0.06
34229 H 33.64391667367035 98.46633836628213 85.1127557213671 H 0.0 **** 0.06
34230 H 32.19943910200284 99.04941542409126 84.25074641818966 H 0.0 **** 0.06
34231 C 109.72530553766269 23.665989351110465 36.62095000334668 C 0.0 **** -0.24
34232 H 110.22083633255095 23.745418183510047 37.58807511306267 H 0.0 **** 0.06
34233 H 110.22392269915895 24.31766590261127 35.902894037106236 H 0.0 **** 0.06
34234 H 108.68269399490563 23.965227879701775 36.72195564401031 H 0.0 **** 0.06
34235 H 109.77536899580035 22.635137007850712 36.271301903308455 H 0.0 **** 0.06
34236 C 77.20663397195585 14.721372766757668 34.764144020902194 C 0.0 **** -0.24
34237 H 76.15854215564461 14.696187220285935 34.46797700479985 H 0.0 **** 0.06
34238 H 77.72280629058221 15.502856287685574 34.20692740900944 H 0.0 **** 0.06
34239 H 77.66798644391307 13.757439688463421 34.550893890505876 H 0.0 **** 0.06
34240 H 77.27748479080348 14.928981452803725 35.832163010003796 H 0.0 **** 0.06
34241 C 37.154726654190135 98.31746294679044 7.699471582427359 C 0.0 **** -0.24
34242 H 37.739127354486484 98.80936018420243 6.9218517106484345 H 0.0 **** 0.06
34243 H 36.888348209436614 97.31232910020708 7.370819388170462 H 0.0 **** 0.06
34244 H 36.247102735061766 98.89076579046105 7.889433222717313 H 0.0 **** 0.06
34245 H 37.74471620051897 98.25696599274124 8.614149777037838 H 0.0 **** 0.06
34246 C 59.18053468914297 18.052549505867724 97.50741316836798 C 0.0 **** -0.24
34247 H 59.53394290732143 19.05067866888608 97.76386682495144 H 0.0 **** 0.06
34248 H 59.78051536735853 17.653778122552943 96.68889234083628 H 0.0 **** 0.06
34249 H 58.13503790236663 18.103888774808 97.20073000432444 H 0.0 **** 0.06
34250 H 59.271015995639175 17.400092168109964 98.37666937761318 H 0.0 **** 0.06
34251 C 75.34909169803689 41.296218757524485 69.3139766055732 C 0.0 **** -0.24
34252 H 74.85720304643613 41.19324710833818 70.28067359703289 H 0.0 **** 0.06
34253 H 74.59945673922026 41.45542244583202 68.53950498196878 H 0.0 **** 0.06
34254 H 75.91260910700525 40.388293375895714 69.09483178227185 H 0.0 **** 0.06
34255 H 76.02998727221024 42.14763884081109 69.34215198993172 H 0.0 **** 0.06
34256 C 76.66018659934213 14.974086470373692 65.22634749156956 C 0.0 **** -0.24
34257 H 77.05525278377519 14.214811701993767 64.55091481387124 H 0.0 **** 0.06
34258 H 77.22523996976832 14.959859699653293 66.15917979045426 H 0.0 **** 0.06
34259 H 75.61071420124546 14.765052530274119 65.43390045464514 H 0.0 **** 0.06
34260 H 76.74980660357 15.955715766190195 64.76106702477067 H 0.0 **** 0.06
34261 C 107.58525488510136 65.01392063294492 10.122515291899488 C 0.0 **** -0.24
34262 H 107.70886059732803 64.65586950922523 9.10062305961475 H 0.0 **** 0.06
34263 H 106.89727483705587 64.3580208509724 10.656029737918708 H 0.0 **** 0.06
34264 H 107.18374796661604 66.02704649573435 10.10572532915603 H 0.0 **** 0.06
34265 H 108.55201319879836 65.0149844911213 10.62659960441249 H 0.0 **** 0.06
34266 C 81.90034395011136 73.65797733650038 19.14528850688436 C 0.0 **** -0.24
34267 H 82.13475856915068 72.59984560909402 19.026596490755292 H 0.0 **** 0.06
34268 H 81.72139024349858 73.87372055140403 20.19956136831602 H 0.0 **** 0.06
34269 H 81.00760315685858 73.89867011428696 18.568128571459248 H 0.0 **** 0.06
34270 H 82.7372104430406 74.25777100520573 18.787968281668768 H 0.0 **** 0.06
34271 C 47.3128742938884 21.80960522930843 34.18567214451156 C 0.0 **** -0.24
34272 H 47.38409288800881 20.724877713726045 34.10453109456469 H 0.0 **** 0.06
34273 H 46.32826230498222 22.080525998696828 34.56820312941616 H 0.0 **** 0.06
34274 H 47.45641639178842 22.25812038618389 33.20195388158885 H 0.0 **** 0.06
34275 H 48.0808326961689 22.17409332165485 34.86712206823242 H 0.0 **** 0.06
34276 C 3.6769840168146857 87.0967149091717 54.86679459786666 C 0.0 **** -0.24
34277 H 2.6263534561632724 87.0980743665318 54.5769217013642 H 0.0 **** 0.06
34278 H 3.7556037413029486 87.2170681151017 55.947382765627026 H 0.0 **** 0.06
34279 H 4.19237371659311 87.91943899826751 54.37031568882264 H 0.0 **** 0.06
34280 H 4.133919631961234 86.15154441901763 54.5713908314591 H 0.0 **** 0.06
34281 C 59.14974077291873 71.4736525711873 103.6419568453739 C 0.0 **** -0.24
34282 H 59.600375639432926 70.49350409508276 103.79821918117264 H 0.0 **** 0.06
34283 H 58.1357396798741 71.47539317532295 104.04233729651918 H 0.0 **** 0.06
34284 H 59.11922211666558 71.69282631186192 102.57465360125084 H 0.0 **** 0.06
34285 H 59.743195906142276 72.23240581462937 104.15135866728244 H 0.0 **** 0.06
34286 C 44.26619987114921 24.622429318939282 15.525357064846812 C 0.0 **** -0.24
34287 H 44.19335273902834 23.84807524311094 16.28912849739943 H 0.0 **** 0.06
34288 H 44.56801494643511 25.561471567393312 15.988624825357938 H 0.0 **** 0.06
34289 H 43.2963432735896 24.749110082617563 15.044354057985636 H 0.0 **** 0.06
34290 H 45.005810171822645 24.328562336102095 14.780778986341435 H 0.0 **** 0.06
34291 C 18.914402363420496 78.08938231816933 7.511385475966449 C 0.0 **** -0.24
34292 H 19.314854742393113 78.4287107180179 6.555469726408546 H 0.0 **** 0.06
34293 H 17.936839875277904 78.54315159732244 7.676415135128195 H 0.0 **** 0.06
34294 H 19.591406175393452 78.38367602283012 8.312624345866936 H 0.0 **** 0.06
34295 H 18.81506180281716 77.0041958682267 7.49883433257645 H 0.0 **** 0.06
34296 C 79.93610333951348 28.565359114265107 26.716281046301845 C 0.0 **** -0.24
34297 H 79.49104357095378 27.897183001536135 27.454025752740478 H 0.0 **** 0.06
34298 H 79.33120905166112 29.46932778831264 26.63530361346386 H 0.0 **** 0.06
34299 H 79.97258838607472 28.064082666862475 25.74876643340636 H 0.0 **** 0.06
34300 H 80.9460992054027 28.83001059938826 27.028144218713805 H 0.0 **** 0.06
34301 C 36.62278455412084 1.5285521307741874 84.15926811136143 C 0.0 **** -0.24
34302 H 36.2262076096855 2.542708728891853 84.21322071414806 H 0.0 **** 0.06
34303 H 37.56099207047994 1.5353147566776784 83.60304357624352 H 0.0 **** 0.06
34304 H 35.90441409330552 0.8848738548925326 83.65329696237657 H 0.0 **** 0.06
34305 H 36.80052041085804 1.1547427718855374 85.16702859877918 H 0.0 **** 0.06
34306 C 67.28512177224287 1.6804523601304027 19.54454140414486 C 0.0 **** -0.24
34307 H 68.2389737922184 1.363581400051487 19.968026852245355 H 0.0 **** 0.06
34308 H 67.13701459383816 2.7428100152623927 19.73827112946887 H 0.0 **** 0.06
34309 H 66.477547522282 1.1108674863999397 20.00487025885076 H 0.0 **** 0.06
34310 H 67.28860421601378 1.5032181037009593 18.46973465459801 H 0.0 **** 0.06
34311 C 62.90733894045218 43.91705615216986 72.12681002794483 C 0.0 **** -0.24
34312 H 63.36144676622189 43.28206462894025 71.36511346397418 H 0.0 **** 0.06
34313 H 63.52875193786673 43.91001901704688 73.0227598807536 H 0.0 **** 0.06
34314 H 61.914472648799006 43.54029887733826 72.36928092324285 H 0.0 **** 0.06
34315 H 62.82685622590827 44.9362020585278 71.74804768709566 H 0.0 **** 0.06
34316 C 51.61830359509989 103.52662450344184 109.4667047770059 C 0.0 **** -0.24
34317 H 51.16036344919036 102.53690383646108 109.47291894152508 H 0.0 **** 0.06
34318 H 51.59747827897403 103.94269612664297 110.47424607731665 H 0.0 **** 0.06
34319 H 51.06380516799363 104.17823750491957 108.79177833890691 H 0.0 **** 0.06
34320 H 52.650559031814474 103.44552963749737 109.12830117983177 H 0.0 **** 0.06
34321 C 6.329669837981228 9.505176275604086 3.575170529525451 C 0.0 **** -0.24
34322 H 5.938951031516154 9.802742275663945 2.6028619644811215 H 0.0 **** 0.06
34323 H 7.359114614970352 9.849416974689888 3.67395068767388 H 0.0 **** 0.06
34324 H 6.299233729917134 8.419021703249214 3.6618170715310328 H 0.0 **** 0.06
34325 H 5.720240371592283 9.949151238706605 4.363302351123423 H 0.0 **** 0.06
34326 C 60.80123486994809 81.03590903859015 20.169901242470587 C 0.0 **** -0.24
34327 H 60.84654305699746 81.99743278629035 20.68250249571986 H 0.0 **** 0.06
34328 H 59.81674352013437 80.59203751476895 20.317500634939165 H 0.0 **** 0.06
34329 H 61.563725549401255 80.37249414577877 20.576065364455133 H 0.0 **** 0.06
34330 H 60.976340525300586 81.18459639367506 19.1049253021676 H 0.0 **** 0.06
34331 C 81.64131020605312 100.49328729511943 84.65457157783209 C 0.0 **** -0.24
34332 H 81.49917808198873 100.11381058537634 83.64261227723642 H 0.0 **** 0.06
34333 H 80.72138150984038 100.36246962497154 85.2241316244185 H 0.0 **** 0.06
34334 H 81.89797978197711 101.551323819115 84.61303699779566 H 0.0 **** 0.06
34335 H 82.44867949844947 99.94249545050722 85.13761808069091 H 0.0 **** 0.06
34336 C 81.28679905647023 11.87531749450033 15.735741675507242 C 0.0 **** -0.24
34337 H 80.40766995889466 12.503658220799728 15.596473439254854 H 0.0 **** 0.06
34338 H 81.28265710412408 11.463505123675954 16.745065290225117 H 0.0 **** 0.06
34339 H 82.18704262224092 12.473788420815428 15.590821421208855 H 0.0 **** 0.06
34340 H 81.27092915872403 11.062199143201294 15.009490023027706 H 0.0 **** 0.06
34341 C 37.540105270636985 96.20398084326888 101.51451284543815 C 0.0 **** -0.24
34342 H 38.16149508358373 96.09070442343591 102.40209034453105 H 0.0 **** 0.06
34343 H 36.4925231993538 96.26449061148287 101.80925357316859 H 0.0 **** 0.06
34344 H 37.68376245466271 95.34553780060503 100.85814945412939 H 0.0 **** 0.06
34345 H 37.82293892791728 97.11479164343615 100.98723444192414 H 0.0 **** 0.06
34346 C 92.15271885569865 96.26061238856926 65.54495465021486 C 0.0 **** -0.24
34347 H 92.59733499599531 96.0844653017291 64.56587478449399 H 0.0 **** 0.06
34348 H 92.92804822742997 96.57173866826236 66.24595864271691 H 0.0 **** 0.06
34349 H 91.68644892304843 95.34342995429347 65.90277917691662 H 0.0 **** 0.06
34350 H 91.39923505803182 97.04503839758354 65.46535691193236 H 0.0 **** 0.06
34351 C 21.138044546130196 21.950783300684478 93.88370930495466 C 0.0 **** -0.24
34352 H 21.940240262402725 21.48663313513279 94.45714489180568 H 0.0 **** 0.06
34353 H 20.291831701770803 21.26632705741669 93.8238995528618 H 0.0 **** 0.06
34354 H 21.494825097736978 22.17587084525252 92.87785392396637 H 0.0 **** 0.06
34355 H 20.82726256778283 22.87330903826026 94.37391696421156 H 0.0 **** 0.06
34356 C 8.574920178496427 104.32482866683708 30.43917337330108 C 0.0 **** -0.24
34357 H 8.664462536750847 104.09833935949774 29.376451621760722 H 0.0 **** 0.06
34358 H 7.564718793593585 104.67582422311008 30.651839907788705 H 0.0 **** 0.06
34359 H 9.293278317590307 105.09953966382119 30.707585733090177 H 0.0 **** 0.06
34360 H 8.776676966702865 103.42448345743026 31.020159150035823 H 0.0 **** 0.06
34361 C 91.6070902443887 28.745917435314446 13.125820097918151 C 0.0 **** -0.24
34362 H 92.34004831623491 27.952147531533804 13.270939184817962 H 0.0 **** 0.06
34363 H 91.75788058805549 29.520719725700054 13.878015187388073 H 0.0 **** 0.06
34364 H 90.6023769516199 28.334987425131885 13.22251257790839 H 0.0 **** 0.06
34365 H 91.7302115171067 29.175412549480754 12.131379625729807 H 0.0 **** 0.06
34366 C 24.632693235542973 97.4807888351419 20.410998063174503 C 0.0 **** -0.24
34367 H 25.50821623970606 97.88952767354162 19.905210726808107 H 0.0 **** 0.06
34368 H 24.3678749094355 96.52350143352275 19.961338360981273 H 0.0 **** 0.06
34369 H 23.79801689557911 98.1745655320755 20.30853804899793 H 0.0 **** 0.06
34370 H 24.85732031911607 97.33691338961974 21.467249546980554 H 0.0 **** 0.06
34371 C 99.94038896233207 63.97071518466532 67.78599303185993 C 0.0 **** -0.24
34372 H 99.98919354694522 64.91449833562228 67.24278385262215 H 0.0 **** 0.06
34373 H 100.2951986382268 64.11966641672245 68.80637698622522 H 0.0 **** 0.06
34374 H 100.56815120521912 63.2321750210142 67.28763401055613 H 0.0 **** 0.06
34375 H 98.90958551188265 63.616604898049104 67.80636203825998 H 0.0 **** 0.06
34376 C 26.48311370191928 66.85829657318351 34.012846557980964 C 0.0 **** -0.24
34377 H 25.554424816536525 67.01677339355115 34.561706120773096 H 0.0 **** 0.06
34378 H 26.327414364979703 66.09397164818836 33.25055991350595 H 0.0 **** 0.06
34379 H 27.26231763637591 66.53238282588097 34.701960625015374 H 0.0 **** 0.06
34380 H 26.78665796479953 67.79032533518682 33.5356631340419 H 0.0 **** 0.06
34381 C 98.1401183452123 64.71083417145076 106.8072029898581 C 0.0 **** -0.24
34382 H 98.39811173546201 65.18633640553594 107.75382107559349 H 0.0 **** 0.06
34383 H 97.0661514458624 64.79360779258388 106.64011809494036 H 0.0 **** 0.06
34384 H 98.42295552924983 63.658163025541 106.84202222561632 H 0.0 **** 0.06
34385 H 98.67382728079095 65.20373711810322 105.99575669120753 H 0.0 **** 0.06
34386 C 97.10243701462123 15.195895603169937 79.20409348658539 C 0.0 **** -0.24
34387 H 97.56886843704108 16.043401853041694 78.70026842276216 H 0.0 **** 0.06
34388 H 96.99522642763004 15.419553206318287 80.26578879556335 H 0.0 **** 0.06
34389 H 97.72634782540298 14.311691848610351 79.07947937284324 H 0.0 **** 0.06
34390 H 96.11991402376854 15.012192086670055 78.77067998414692 H 0.0 **** 0.06
34391 C 102.16062637858721 89.09873199176384 24.891490024051507 C 0.0 **** -0.24
34392 H 101.48447634736215 88.2478812988345 24.811234566523638 H 0.0 **** 0.06
34393 H 102.22897733477684 89.41138499851026 25.933442506294398 H 0.0 **** 0.06
34394 H 101.78013460189277 89.92358179161958 24.288757443063304 H 0.0 **** 0.06
34395 H 103.1492588894469 88.81169287173833 24.531669107675043 H 0.0 **** 0.06
34396 C 22.128493914826144 104.1226156204263 94.56288237748656 C 0.0 **** -0.24
34397 H 22.822734649668632 104.69504668540364 95.17723501086974 H 0.0 **** 0.06
34398 H 21.762963486640533 103.26595321704937 95.1299677441414 H 0.0 **** 0.06
34399 H 22.63831878015082 103.77414345314634 93.66550875782434 H 0.0 **** 0.06
34400 H 21.287431980026867 104.75632814579515 94.2800820388137 H 0.0 **** 0.06
34401 C 66.70057644591029 72.96387543729512 56.97084930758177 C 0.0 **** -0.24
34402 H 67.11012064935201 73.63920009954994 56.21937083268347 H 0.0 **** 0.06
34403 H 66.78742889686576 73.4226886413915 57.955871052654004 H 0.0 **** 0.06
34404 H 67.25413810771916 72.02522773664018 56.95514281135661 H 0.0 **** 0.06
34405 H 65.65017923533242 72.77022502338762 56.751819664623554 H 0.0 **** 0.06
34406 C 48.32020375611128 28.71700987904822 5.848551874781862 C 0.0 **** -0.24
34407 H 49.08167193823087 27.939282990902086 5.787413970332253 H 0.0 **** 0.06
34408 H 47.34466604647511 28.257523206973644 6.011447452074464 H 0.0 **** 0.06
34409 H 48.3050380121083 29.28372538051252 4.918486722393666 H 0.0 **** 0.06
34410 H 48.550748417145115 29.385539411876408 6.678706204961401 H 0.0 **** 0.06
34411 C 97.5118245002987 28.00111652746014 9.466883829101576 C 0.0 **** -0.24
34412 H 97.41796588652323 27.01035789259646 9.913212963518248 H 0.0 **** 0.06
34413 H 98.53666846609036 28.35321970354829 9.577720888505425 H 0.0 **** 0.06
34414 H 96.83354639410504 28.69078028097971 9.969166064106219 H 0.0 **** 0.06
34415 H 97.25723027061355 27.948420869274173 8.408697342722192 H 0.0 **** 0.06
34416 C 66.25628123169031 38.54933050904856 95.20229513332735 C 0.0 **** -0.24
34417 H 66.39926896830883 38.025594752248765 94.25703479669211 H 0.0 **** 0.06
34418 H 66.92755509674402 39.40818256166145 95.2458770536363 H 0.0 **** 0.06
34419 H 66.4764127146118 37.87372928196872 96.02830409083704 H 0.0 **** 0.06
34420 H 65.22367972957085 38.89059620544724 95.27591983292447 H 0.0 **** 0.06
34421 C 68.59071075775552 102.96092507777182 65.58141178979162 C 0.0 **** -0.24
34422 H 68.72480799084732 104.03242943153268 65.4305008136892 H 0.0 **** 0.06
34423 H 69.5641057116058 102.47133858237284 65.59018773731333 H 0.0 **** 0.06
34424 H 67.98470501178184 102.5537638985001 64.77298958286013 H 0.0 **** 0.06
34425 H 68.08808340177836 102.78966113842888 66.53383983708511 H 0.0 **** 0.06
34426 C 16.308102070851135 103.91857147495595 102.02781590924276 C 0.0 **** -0.24
34427 H 17.252466630430888 103.67763131892605 102.5164550182666 H 0.0 **** 0.06
34428 H 15.8447726793828 103.00173508121877 101.66217034725214 H 0.0 **** 0.06
34429 H 16.493191806593643 104.59076298149351 101.1898862545337 H 0.0 **** 0.06
34430 H 15.64267705724302 104.40205595831112 102.74243888237166 H 0.0 **** 0.06
34431 C 39.6378503750249 23.998768663301977 31.54391927485463 C 0.0 **** -0.24
34432 H 40.37075130568061 24.04115275629274 30.737474232598615 H 0.0 **** 0.06
34433 H 38.93960024804301 23.183004896597005 31.357935554306266 H 0.0 **** 0.06
34434 H 39.09291469569749 24.941355168093036 31.58879114511781 H 0.0 **** 0.06
34435 H 40.15105394246592 23.829435621413598 32.490793700123604 H 0.0 **** 0.06
34436 C 59.274578056422214 99.07334494225904 14.65220187754505 C 0.0 **** -0.24
34437 H 60.167414769962946 99.48247671798677 15.124131408996586 H 0.0 **** 0.06
34438 H 58.77056921200494 98.40164676323161 15.34730718360387 H 0.0 **** 0.06
34439 H 59.55794785528772 98.52321468068882 13.755646292895502 H 0.0 **** 0.06
34440 H 58.60169175747346 99.88727073607112 14.381599620619198 H 0.0 **** 0.06
34441 C 80.74886178998761 20.880094294902904 61.597428347551215 C 0.0 **** -0.24
34442 H 80.40071929350114 21.89279871753999 61.39440302702255 H 0.0 **** 0.06
34443 H 81.81428347751779 20.901500232679894 61.82606590569739 H 0.0 **** 0.06
34444 H 80.57763298731304 20.255155178748936 60.720741090072096 H 0.0 **** 0.06
34445 H 80.20249653832059 20.471559662162235 62.44692357701226 H 0.0 **** 0.06
34446 C 2.024326437114553 1.7452872868940714 5.065324292459991 C 0.0 **** -0.24
34447 H 2.6374971688679807 2.467527639246608 5.603820562695205 H 0.0 **** 0.06
34448 H 1.6082684467482977 2.216634020130515 4.174434411244491 H 0.0 **** 0.06
34449 H 1.2142395141101474 1.405208887445684 5.709715122998759 H 0.0 **** 0.06
34450 H 2.6381074416954107 0.8939407540705568 4.772505835174854 H 0.0 **** 0.06
34451 C 39.26534705010113 94.07298270039792 25.353302569557627 C 0.0 **** -0.24
34452 H 39.58150990701415 94.99859514081123 25.835377709640113 H 0.0 **** 0.06
34453 H 38.526700102604366 93.57132666330352 25.97958023044555 H 0.0 **** 0.06
34454 H 40.12791832243579 93.42181340836026 25.216704564418364 H 0.0 **** 0.06
34455 H 38.824579148929416 94.30151474271656 24.382440301419194 H 0.0 **** 0.06
34456 C 103.44990792117648 61.94750104871051 15.746987649357834 C 0.0 **** -0.24
34457 H 104.44888232084992 62.19262118385808 15.388463001581243 H 0.0 **** 0.06
34458 H 102.78393414760183 62.79396981551798 15.575344527267134 H 0.0 **** 0.06
34459 H 103.49075228416137 61.72741825264933 16.813814270121185 H 0.0 **** 0.06
34460 H 103.07482382082674 61.075402799132064 15.210666540497499 H 0.0 **** 0.06
34461 C 69.54029422184786 77.24153721873063 43.285956274069264 C 0.0 **** -0.24
34462 H 69.1345901389059 77.12698995671292 42.281045916652715 H 0.0 **** 0.06
34463 H 70.48831900486118 77.77821671094324 43.236580965622466 H 0.0 **** 0.06
34464 H 69.7027606923686 76.25763973888604 43.7273214117115 H 0.0 **** 0.06
34465 H 68.83642045277162 77.80371319503436 43.89987535216022 H 0.0 **** 0.06
34466 C 0.1715527690336529 9.417606484367795 28.741077309916378 C 0.0 **** -0.24
34467 H -0.46754798907102213 8.794178680115962 28.1151078471976 H 0.0 **** 0.06
34468 H 0.6204230526712138 10.20388109854946 28.1327299448142 H 0.0 **** 0.06
34469 H 0.9584825919854438 8.804729092504331 29.181540165789933 H 0.0 **** 0.06
34470 H -0.42514657945088175 9.867637066301285 29.53493128186377 H 0.0 **** 0.06
34471 C 83.75143180868639 77.94353124928772 37.1766997861281 C 0.0 **** -0.24
34472 H 83.79645659549368 77.10036801174066 37.86720491860234 H 0.0 **** 0.06
34473 H 83.15315777660885 77.66792305623608 36.30732407974244 H 0.0 **** 0.06
34474 H 84.75897401489729 78.20503537914142 36.85615816237271 H 0.0 **** 0.06
34475 H 83.29500052381161 78.79782366201725 37.67687245465794 H 0.0 **** 0.06
34476 C 64.91495092182618 94.99134159491689 47.38568282253435 C 0.0 **** -0.24
34477 H 65.37278628179314 94.83875227488488 48.36354889999754 H 0.0 **** 0.06
34478 H 65.69449691799718 95.17962076362426 46.64641372094684 H 0.0 **** 0.06
34479 H 64.24138002127552 95.84729227449043 47.4304759088837 H 0.0 **** 0.06
34480 H 64.35346441867529 94.10098868874883 47.1047303673439 H 0.0 **** 0.06
34481 C 6.792037326543085 70.65282488300551 13.29337452309585 C 0.0 **** -0.24
34482 H 6.0690984894488516 69.84533997073191 13.172257437762084 H 0.0 **** 0.06
34483 H 7.070527992086349 71.03995423299205 12.313414049617222 H 0.0 **** 0.06
34484 H 7.679440689775246 70.27273268725554 13.800959984484905 H 0.0 **** 0.06
34485 H 6.3484193624139404 71.45114397117408 13.887881410615591 H 0.0 **** 0.06
34486 C 38.05817463386646 64.34745265712428 97.30944809048219 C 0.0 **** -0.24
34487 H 37.03988046372177 64.70424551774454 97.46039349269886 H 0.0 **** 0.06
34488 H 38.75599670794358 65.01699256414003 97.81283007693486 H 0.0 **** 0.06
34489 H 38.281088990115194 64.3245292309935 96.24297895756754 H 0.0 **** 0.06
34490 H 38.156610717526206 63.34266299283891 97.72215849275571 H 0.0 **** 0.06
34491 C 8.397686518367607 80.50527523541767 89.98872767006999 C 0.0 **** -0.24
34492 H 7.712844607970538 81.02141703426936 90.66216435938561 H 0.0 **** 0.06
34493 H 9.424798291488173 80.69569719010543 90.29969166667487 H 0.0 **** 0.06
34494 H 8.25207426080047 80.87166318243686 88.97268354763551 H 0.0 **** 0.06
34495 H 8.200274265068089 79.43351386765436 90.02048821580985 H 0.0 **** 0.06
34496 C 2.5967094713807626 44.10393887611991 45.44337392589424 C 0.0 **** -0.24
34497 H 3.546304708318047 43.693430473058925 45.10013134864386 H 0.0 **** 0.06
34498 H 2.7619790124349493 45.09318256131087 45.869825125406244 H 0.0 **** 0.06
34499 H 2.169839499237682 43.4469024732972 46.200754210650935 H 0.0 **** 0.06
34500 H 1.9090613135038836 44.18138476314061 44.59993039752667 H 0.0 **** 0.06
34501 C 77.49672988044483 23.524873833059672 33.007023173588664 C 0.0 **** -0.24
34502 H 76.74808115320872 23.62835481198165 33.792893096533845 H 0.0 **** 0.06
34503 H 77.77128131105314 24.51305962982086 32.634638697063906 H 0.0 **** 0.06
34504 H 77.0858215728993 22.930576125465905 32.1907858685222 H 0.0 **** 0.06
34505 H 78.38022202601417 23.029423888884708 33.40993845842283 H 0.0 **** 0.06
34506 C 81.76844846254949 77.70982302362339 1.5447908310421639 C 0.0 **** -0.24
34507 H 81.6367221064462 76.81732003333337 0.932758698685916 H 0.0 **** 0.06
34508 H 82.5140793030015 78.3585592330569 1.0848552645705212 H 0.0 **** 0.06
34509 H 82.10170982411495 77.42053185370884 2.5408918092210513 H 0.0 **** 0.06
34510 H 80.81964311276312 78.24108894025233 1.6188965595895013 H 0.0 **** 0.06
34511 C 54.547733157897085 93.69254189009007 72.79587947752873 C 0.0 **** -0.24
34512 H 55.27816945381136 93.2463684974424 72.12175797508664 H 0.0 **** 0.06
34513 H 53.71493442745091 94.09284594438157 72.21740589397571 H 0.0 **** 0.06
34514 H 55.018701381967475 94.49772257212248 73.35955821654942 H 0.0 **** 0.06
34515 H 54.17913259088232 92.93308595194003 73.48620265275095 H 0.0 **** 0.06
34516 C 74.73228981552353 77.81190131491803 38.788011213534816 C 0.0 **** -0.24
34517 H 75.58163691379457 77.13083864283118 38.83082269807157 H 0.0 **** 0.06
34518 H 74.6469586867974 78.34532391152351 39.73577318934643 H 0.0 **** 0.06
34519 H 73.82017061186798 77.24373015590692 38.60707256419414 H 0.0 **** 0.06
34520 H 74.88098818745402 78.52856354578819 37.979336463303895 H 0.0 **** 0.06
34521 C 24.530270063778403 109.61782117513559 46.77671740054487 C 0.0 **** -0.24
34522 H 24.07951479871673 108.8566163767142 47.41347848322616 H 0.0 **** 0.06
34523 H 24.988589780246343 109.14173900881462 45.909007416116026 H 0.0 **** 0.06
34524 H 25.292313886276133 110.15703868135827 47.33942818391682 H 0.0 **** 0.06
34525 H 23.761735294854816 110.31551675108068 46.44411415132345 H 0.0 **** 0.06
34526 C 14.69276148410696 47.37295971248682 43.06416001764119 C 0.0 **** -0.24
34527 H 14.309692982243902 47.80296998674248 42.138106306903644 H 0.0 **** 0.06
34528 H 15.594366498517296 47.907749755387044 43.36573061796633 H 0.0 **** 0.06
34529 H 14.929978677547108 46.321298376142295 42.90511555462002 H 0.0 **** 0.06
34530 H 13.938012163703338 47.46209889837462 43.84549630854098 H 0.0 **** 0.06
34531 C 46.88500789380657 82.49218620943714 99.11361468127343 C 0.0 **** -0.24
34532 H 46.3263695766517 82.12967384982714 99.97628595758154 H 0.0 **** 0.06
34533 H 47.95354635029736 82.38431368879982 99.30127886147736 H 0.0 **** 0.06
34534 H 46.649605539835136 83.54323489476667 98.94405005297928 H 0.0 **** 0.06
34535 H 46.60917785407952 81.91188547666732 98.23253827595474 H 0.0 **** 0.06
34536 C 63.09546792164484 8.094096428448552 109.39707500205708 C 0.0 **** -0.24
34537 H 62.092099855378436 7.702081559260932 109.2290969537136 H 0.0 **** 0.06
34538 H 63.2759876903409 8.930844306698418 108.72304957230364 H 0.0 **** 0.06
34539 H 63.82756346576629 7.309102264861451 109.20574010274188 H 0.0 **** 0.06
34540 H 63.18550553924888 8.431218893400853 110.4296147797302 H 0.0 **** 0.06
34541 C 84.40762401443268 56.815409327829855 43.06858848886762 C 0.0 **** -0.24
34542 H 84.82870403949539 57.60812505247924 43.68675279603582 H 0.0 **** 0.06
34543 H 84.66383508588075 55.84581237182272 43.49780691401713 H 0.0 **** 0.06
34544 H 84.81610731417624 56.88550475879481 42.06045716999958 H 0.0 **** 0.06
34545 H 83.32328082264826 56.921223846771284 43.029245331530376 H 0.0 **** 0.06
34546 C 41.32122431153786 1.9472377942490953 101.92402892980397 C 0.0 **** -0.24
34547 H 40.78217310010734 2.8719309351404583 101.7189628490567 H 0.0 **** 0.06
34548 H 42.347227401279525 2.038304893600599 101.56540203487921 H 0.0 **** 0.06
34549 H 40.8294412131863 1.1192243975259144 101.41333436451772 H 0.0 **** 0.06
34550 H 41.32729939900969 1.76045607122464 102.9976943301425 H 0.0 **** 0.06
34551 C 27.90461772763706 92.99938099818795 73.29386608776895 C 0.0 **** -0.24
34552 H 28.59046420357538 92.15220390635403 73.31195847147978 H 0.0 **** 0.06
34553 H 26.87749174123539 92.63456049133052 73.27857071791385 H 0.0 **** 0.06
34554 H 28.091856937903913 93.59851935517761 72.40338454230795 H 0.0 **** 0.06
34555 H 28.059913300706086 93.61013572689143 74.18328144794816 H 0.0 **** 0.06
34556 C 70.22001511904384 85.71900061127121 3.5266247613923127 C 0.0 **** -0.24
34557 H 69.18803167511933 85.66501905398519 3.8728066164701715 H 0.0 **** 0.06
34558 H 70.34234689179368 85.08263612625305 2.650664792251547 H 0.0 **** 0.06
34559 H 70.88710717496477 85.37811401725492 4.319068011721299 H 0.0 **** 0.06
34560 H 70.46246243796577 86.74862874624665 3.2651483917465782 H 0.0 **** 0.06
34561 C 64.02824134072821 3.8074098763447175 17.735106511011054 C 0.0 **** -0.24
34562 H 64.10570418852242 2.7199210774690137 17.720396350153862 H 0.0 **** 0.06
34563 H 63.82570513791097 4.142744278760471 18.752460272395354 H 0.0 **** 0.06
34564 H 63.217307834206565 4.122360342536153 17.078660195737314 H 0.0 **** 0.06
34565 H 64.96602799873057 4.241819255112624 17.38875638749647 H 0.0 **** 0.06
34566 C 79.7138788926297 101.56345836569625 10.866739298728135 C 0.0 **** -0.24
34567 H 79.46823214142152 100.6871314974994 11.466351349612069 H 0.0 **** 0.06
34568 H 79.94684963168017 102.39976613875334 11.525883196508119 H 0.0 **** 0.06
34569 H 78.86283635695328 101.8235313537956 10.236855655995925 H 0.0 **** 0.06
34570 H 80.57736204497824 101.34465835116626 10.238477302884434 H 0.0 **** 0.06
34571 C 21.916158492399234 32.61386359216738 36.66390984071706 C 0.0 **** -0.24
34572 H 21.25914632026807 33.483478576231846 36.65180554845413 H 0.0 **** 0.06
34573 H 22.908247522756444 32.912949309162 37.003603630626806 H 0.0 **** 0.06
34574 H 21.987017066738716 32.198145580716414 35.65917092389189 H 0.0 **** 0.06
34575 H 21.51128692910467 31.861752513923136 37.341388769166706 H 0.0 **** 0.06
34576 C 72.34378543253668 5.313523636058081 63.00061259511739 C 0.0 **** -0.24
34577 H 72.06114468440151 6.314620678330996 62.673613058659726 H 0.0 **** 0.06
34578 H 71.5571392860249 4.902684772545372 63.63364893839969 H 0.0 **** 0.06
34579 H 73.27464891046985 5.365101841330086 63.56460954865807 H 0.0 **** 0.06
34580 H 72.4822383416577 4.672479903228812 62.129407965492476 H 0.0 **** 0.06
34581 C 2.296314934380902 40.90534502946741 43.81836245299968 C 0.0 **** -0.24
34582 H 1.8941856968499735 39.91354025415092 43.61310879002656 H 0.0 **** 0.06
34583 H 2.155255652443202 41.542040510671 42.94540034802145 H 0.0 **** 0.06
34584 H 3.360013809273184 40.82614101944307 44.042993627188764 H 0.0 **** 0.06
34585 H 1.7760732684455576 41.33782476031041 44.67269938713946 H 0.0 **** 0.06
34586 C 92.78071627516992 46.301271392482136 65.02836535699566 C 0.0 **** -0.24
34587 H 92.72155463210635 46.01728602906309 63.977308753566945 H 0.0 **** 0.06
34588 H 93.32698726470242 47.24110887236626 65.11928478953956 H 0.0 **** 0.06
34589 H 93.30030938853206 45.52300148138335 65.58560191164759 H 0.0 **** 0.06
34590 H 91.77401556291494 46.42486085102581 65.42771239692956 H 0.0 **** 0.06
34591 C 97.51881745495297 71.26040447321357 104.61314038016825 C 0.0 **** -0.24
34592 H 97.08336291885726 70.35148814408839 104.19831370339509 H 0.0 **** 0.06
34593 H 97.94304289619123 71.8607104063107 103.80789363141925 H 0.0 **** 0.06
34594 H 98.30292529178911 70.9965858727359 105.32301670071116 H 0.0 **** 0.06
34595 H 96.7439776193716 71.8326444470017 105.12439513994971 H 0.0 **** 0.06
34596 C 47.45274432195552 18.049915822093794 21.6911787972291 C 0.0 **** -0.24
34597 H 46.794972773026686 18.604520680466692 22.360834530980924 H 0.0 **** 0.06
34598 H 47.33027607215285 18.420367106321862 20.672691105427816 H 0.0 **** 0.06
34599 H 47.19553526961628 16.991060143144452 21.726248861732927 H 0.0 **** 0.06
34600 H 48.48811594743835 18.18318606045716 22.005577266683417 H 0.0 **** 0.06
34601 C 105.09633696133278 29.853393256810108 19.046343573362336 C 0.0 **** -0.24
34602 H 104.7124412065512 29.081078593355414 19.713117791902413 H 0.0 **** 0.06
34603 H 104.37047940166212 30.66289585456647 18.973172201389534 H 0.0 **** 0.06
34604 H 105.2674626959093 29.426289078739842 18.058172161127956 H 0.0 **** 0.06
34605 H 106.0352289612913 30.240481084049236 19.44187681226649 H 0.0 **** 0.06
34606 C 89.66777942934455 45.5010897329272 98.64958350914866 C 0.0 **** -0.24
34607 H 88.70180390403826 45.545459858833055 98.14521224028023 H 0.0 **** 0.06
34608 H 90.42002998033809 45.11837776383294 97.95857520495159 H 0.0 **** 0.06
34609 H 89.59690190445573 44.84041769641709 99.51334362792743 H 0.0 **** 0.06
34610 H 89.9516114206297 46.500307191563934 98.97831067616366 H 0.0 **** 0.06
34611 C 101.4392500911278 56.253101259456 1.284344314712257 C 0.0 **** -0.24
34612 H 101.76096892375404 56.19665960222409 0.2440505562343418 H 0.0 **** 0.06
34613 H 100.66286965225277 57.01285005059822 1.382853197685165 H 0.0 **** 0.06
34614 H 102.28869542572272 56.51701933869188 1.913692042010851 H 0.0 **** 0.06
34615 H 101.04388050541587 55.28650538080839 1.594487773554107 H 0.0 **** 0.06
34616 C 95.05517763509644 32.45148425583295 40.26990361316999 C 0.0 **** -0.24
34617 H 95.81209717303925 32.92488829613126 39.644767511206396 H 0.0 **** 0.06
34618 H 95.30083376932654 32.60813044376653 41.319890627307586 H 0.0 **** 0.06
34619 H 95.02580798420746 31.382750323691198 40.05745140180608 H 0.0 **** 0.06
34620 H 94.08098465778194 32.89056645721689 40.05469999345647 H 0.0 **** 0.06
34621 C 65.69387156360186 73.34923469089327 86.62059559832272 C 0.0 **** -0.24
34622 H 66.16235934331885 72.46008475427715 87.04147714622898 H 0.0 **** 0.06
34623 H 64.67363497637218 73.11423868040603 86.31597952381622 H 0.0 **** 0.06
34624 H 66.26414612269714 73.68449488519033 85.75386248013291 H 0.0 **** 0.06
34625 H 65.6759680320381 74.13973639851852 87.37110426875711 H 0.0 **** 0.06
34626 C 91.74099974345498 32.78401761044811 10.613224176697027 C 0.0 **** -0.24
34627 H 90.77592527457563 32.28252234969353 10.692971033780125 H 0.0 **** 0.06
34628 H 91.84718147204802 33.49813208968702 11.42993874776348 H 0.0 **** 0.06
34629 H 91.80010969581559 33.309577780591745 9.66001419791734 H 0.0 **** 0.06
34630 H 92.53987020680694 32.04381881517915 10.670272580754052 H 0.0 **** 0.06
34631 C 69.22790133248492 56.04892909005568 7.7986945631434335 C 0.0 **** -0.24
34632 H 68.37420586009483 55.42055788103274 8.051230425145212 H 0.0 **** 0.06
34633 H 70.09689649179194 55.72901333542057 8.37277731231393 H 0.0 **** 0.06
34634 H 68.99666460970423 57.08726557558528 8.036273287648259 H 0.0 **** 0.06
34635 H 69.44170518306566 55.95885060660457 6.733827202718823 H 0.0 **** 0.06
34636 C 89.95540053385719 22.811459007444284 58.588295951651276 C 0.0 **** -0.24
34637 H 89.18515383602653 23.53719210029317 58.85039757798421 H 0.0 **** 0.06
34638 H 90.9189214721309 23.149905019063283 58.97067597506822 H 0.0 **** 0.06
34639 H 90.00794570432896 22.713521646773586 57.504293656635866 H 0.0 **** 0.06
34640 H 89.70899872674926 21.8454614599994 59.02859198913586 H 0.0 **** 0.06
34641 C 2.3489664092435163 6.570183931872364 33.40045146497229 C 0.0 **** -0.24
34642 H 2.9720459352120088 6.8806554692936714 34.23950872610757 H 0.0 **** 0.06
34643 H 1.8785804562353263 5.614613794472476 33.632383573327246 H 0.0 **** 0.06
34644 H 2.967989810321029 6.464019156135606 32.50889784193751 H 0.0 **** 0.06
34645 H 1.579462148320232 7.321200908728713 33.221224140351694 H 0.0 **** 0.06
34646 C 36.3709867364139 43.50119487600185 109.84337186823825 C 0.0 **** -0.24
34647 H 36.42987202540155 42.41351478902756 109.88771487209782 H 0.0 **** 0.06
34648 H 35.32472148112137 43.80725894713197 109.828320112294 H 0.0 **** 0.06
34649 H 36.86566415666121 43.85523982036443 108.93859554904505 H 0.0 **** 0.06
34650 H 36.86230981259425 43.92772501083114 110.71743786759004 H 0.0 **** 0.06
34651 C 79.99728930737477 29.142087710538846 58.31298252377002 C 0.0 **** -0.24
34652 H 79.50602383968435 28.338918940767712 57.764610523577204 H 0.0 **** 0.06
34653 H 79.79851690202096 29.02947374980144 59.379003341178304 H 0.0 **** 0.06
34654 H 79.61208646901152 30.103440166421194 57.971443335252275 H 0.0 **** 0.06
34655 H 81.07171227041998 29.097492998716234 58.136255856382036 H 0.0 **** 0.06
34656 C 3.6294777149990978 5.734592845276325 82.63182647846469 C 0.0 **** -0.24
34657 H 3.4829469216694804 5.228849866295263 81.67748508609557 H 0.0 **** 0.06
34658 H 4.383510035068724 5.2024764277813915 83.2126019566584 H 0.0 **** 0.06
34659 H 2.6890593977009587 5.7476267270857875 83.18354133289108 H 0.0 **** 0.06
34660 H 3.9613791930435553 6.757520220547349 82.45428289655578 H 0.0 **** 0.06
34661 C 8.55042473306463 6.060893275988974 40.05416086316788 C 0.0 **** -0.24
34662 H 8.628473389158415 5.299695252862875 39.277710785542325 H 0.0 **** 0.06
34663 H 9.117798486194403 5.745443440187046 40.92984811586541 H 0.0 **** 0.06
34664 H 7.503511448431482 6.194889493658053 40.32694344047806 H 0.0 **** 0.06
34665 H 8.953306552546167 7.00280066779402 39.680267166014914 H 0.0 **** 0.06
34666 C 10.007511699748662 101.79785853733381 22.883259295866083 C 0.0 **** -0.24
34667 H 9.077230167543306 101.60348375139984 23.41635910821924 H 0.0 **** 0.06
34668 H 9.78308607266058 102.23050216783031 21.90769924281213 H 0.0 **** 0.06
34669 H 10.552332714692696 100.86286938884928 22.74955766419751 H 0.0 **** 0.06
34670 H 10.617610245435884 102.49469861427917 23.45770632394874 H 0.0 **** 0.06
34671 C 88.40297420659891 103.92164259885777 34.40195915861145 C 0.0 **** -0.24
34672 H 87.89309159978204 103.10503285145066 34.91380387666476 H 0.0 **** 0.06
34673 H 87.98423111378025 104.87328279796026 34.73061540692828 H 0.0 **** 0.06
34674 H 88.26639408835463 103.81674664710525 33.32585394994041 H 0.0 **** 0.06
34675 H 89.46608750019021 103.89087951991723 34.638670890059785 H 0.0 **** 0.06
34676 C 46.65475288936045 64.96689698834092 65.64922251161045 C 0.0 **** -0.24
34677 H 45.962381258720484 65.31244855565612 64.88185731326917 H 0.0 **** 0.06
34678 H 47.557814873338344 64.57936150740782 65.17653224505682 H 0.0 **** 0.06
34679 H 46.18360794979088 64.17776921916091 66.23491229555623 H 0.0 **** 0.06
34680 H 46.91561612398948 65.79892079726237 66.3036210969737 H 0.0 **** 0.06
34681 C 23.107420920188417 6.837347785802194 31.52286531332487 C 0.0 **** -0.24
34682 H 23.67084884293331 6.859855124608941 30.58915432411061 H 0.0 **** 0.06
34683 H 22.774450228455123 7.845691261615627 31.769698673409636 H 0.0 **** 0.06
34684 H 23.744833082049183 6.458780167250723 32.32214063715719 H 0.0 **** 0.06
34685 H 22.241860231951364 6.185100319470223 31.408306806490884 H 0.0 **** 0.06
34686 C 20.10801671913825 52.25637188730073 48.01510208142224 C 0.0 **** -0.24
34687 H 21.137180991377278 52.35279084266233 48.36263492232922 H 0.0 **** 0.06
34688 H 20.036788040795273 52.61128081446472 46.986972294045415 H 0.0 **** 0.06
34689 H 19.453263585264295 52.852970972621875 48.651174917724575 H 0.0 **** 0.06
34690 H 19.805965730819793 51.210115744974985 48.061846229057835 H 0.0 **** 0.06
34691 C 42.53618750608403 106.84793220873286 66.76674837035543 C 0.0 **** -0.24
34692 H 42.82072145426494 107.72132167073505 67.35364871770864 H 0.0 **** 0.06
34693 H 42.24986107802941 106.03745280771477 67.43670510683631 H 0.0 **** 0.06
34694 H 43.38085048717659 106.53129640531861 66.15500092212204 H 0.0 **** 0.06
34695 H 41.695693386484216 107.10117162217789 66.12129727291949 H 0.0 **** 0.06
34696 C 31.06922466531239 67.86297786332975 32.31159593612519 C 0.0 **** -0.24
34697 H 31.250474875312932 67.5989338831289 33.354289541195726 H 0.0 **** 0.06
34698 H 31.41622172624028 68.88031926283594 32.12886311889787 H 0.0 **** 0.06
34699 H 30.001520481184684 67.80017463912526 32.1021556179257 H 0.0 **** 0.06
34700 H 31.60874943933038 67.17297620989942 31.664034055690664 H 0.0 **** 0.06
34701 C 5.8121986806095265 37.41196902179978 11.743745549366736 C 0.0 **** -0.24
34702 H 6.38748418029229 37.00960119353942 10.909781240269126 H 0.0 **** 0.06
34703 H 4.842843790253596 36.913213233638025 11.789293454612874 H 0.0 **** 0.06
34704 H 5.665225758598382 38.48204597619682 11.601151902411772 H 0.0 **** 0.06
34705 H 6.3531776138454745 37.23930191813262 12.674303238247717 H 0.0 **** 0.06
34706 C 79.52302273599935 105.62366826115368 110.65488433917061 C 0.0 **** -0.24
34707 H 80.25426256992625 104.87050194383244 110.94964792823043 H 0.0 **** 0.06
34708 H 79.86343028832044 106.60734758050114 110.98038471502329 H 0.0 **** 0.06
34709 H 78.56352628627235 105.39882124743161 111.11870329677265 H 0.0 **** 0.06
34710 H 79.41255566660794 105.61838144336122 109.57065659937454 H 0.0 **** 0.06
34711 C 103.21365456942675 110.69288811174994 7.10924644977581 C 0.0 **** -0.24
34712 H 103.76445932347308 111.20767390356019 7.896205421230093 H 0.0 **** 0.06
34713 H 103.38248247031663 111.19742461473277 6.157619518390675 H 0.0 **** 0.06
34714 H 102.14975828868688 110.7046029201777 7.343733428689404 H 0.0 **** 0.06
34715 H 103.55914658487441 109.66127487049675 7.039826460121617 H 0.0 **** 0.06
34716 C 23.806289566159705 4.851969927482628 96.2737204365492 C 0.0 **** -0.24
34717 H 22.9004179746822 5.190504050451011 96.77562479951304 H 0.0 **** 0.06
34718 H 24.356758746642015 4.179469429051267 96.93174589288871 H 0.0 **** 0.06
34719 H 24.428995787469148 5.712774065302341 96.02935401475565 H 0.0 **** 0.06
34720 H 23.53852524594896 4.326224372130497 95.35689404049356 H 0.0 **** 0.06
34721 C 1.4856079368433939 14.817939240992242 0.9761389437759078 C 0.0 **** -0.24
34722 H 2.4989042125637866 14.560133591778552 1.2841253654514446 H 0.0 **** 0.06
34723 H 1.4966169970069245 15.15694579421902 -0.060375964448752484 H 0.0 **** 0.06
34724 H 1.1041473537491129 15.614845326899516 1.6154223734882294 H 0.0 **** 0.06
34725 H 0.8437259947411349 13.941831433989176 1.06510738783345 H 0.0 **** 0.06
34726 C 24.01686496132919 22.777772415050094 71.54054801134242 C 0.0 **** -0.24
34727 H 24.643978454527712 22.959308137248343 72.4128656902011 H 0.0 **** 0.06
34728 H 23.077578319094187 23.31964163695517 71.64945193099527 H 0.0 **** 0.06
34729 H 23.81403968265323 21.710160684381265 71.4550679695111 H 0.0 **** 0.06
34730 H 24.533903256126678 23.12267020922252 70.64420503787755 H 0.0 **** 0.06
34731 C 35.7898335372884 101.51751810463341 44.675005622941796 C 0.0 **** -0.24
34732 H 36.14961212850745 100.56037109481692 45.0520834416991 H 0.0 **** 0.06
34733 H 34.82897606484035 101.75145913737889 45.134751536384584 H 0.0 **** 0.06
34734 H 35.67068425544483 101.46017861059393 43.592611327377654 H 0.0 **** 0.06
34735 H 36.51007861641665 102.29872068655162 44.919822548786385 H 0.0 **** 0.06
34736 C 79.42018538565856 27.239079326515082 108.87472802444086 C 0.0 **** -0.24
34737 H 80.50427523302673 27.231129969754505 108.98834909836685 H 0.0 **** 0.06
34738 H 78.95357281338889 27.343607218378423 109.85356932552219 H 0.0 **** 0.06
34739 H 79.09689098474524 26.305020578411643 108.4148761628357 H 0.0 **** 0.06
34740 H 79.12823285220122 28.076316527710134 108.24039503383426 H 0.0 **** 0.06
34741 C 70.69625733450488 55.18672282375928 94.22632033350658 C 0.0 **** -0.24
34742 H 70.8114411456977 54.83632480463854 95.25146744139727 H 0.0 **** 0.06
34743 H 71.09882057885136 56.196151495610934 94.1396811795259 H 0.0 **** 0.06
34744 H 69.63848262342748 55.193460511601245 93.96186611350868 H 0.0 **** 0.06
34745 H 71.23465926942828 54.52152342438393 93.5524496002181 H 0.0 **** 0.06
34746 C 99.01873347760704 63.88907912148976 15.214286163889767 C 0.0 **** -0.24
34747 H 99.14445662048615 63.50826247394696 16.22807170754679 H 0.0 **** 0.06
34748 H 98.50824523328868 64.852341050861 15.248941878661412 H 0.0 **** 0.06
34749 H 98.42577142937574 63.18333973835597 14.632181632803764 H 0.0 **** 0.06
34750 H 99.99690934686981 64.0124580123876 14.749287928985268 H 0.0 **** 0.06
34751 C 79.86448966648473 101.16595146138648 105.39115435252143 C 0.0 **** -0.24
34752 H 80.20421012799883 100.36005251312672 106.0417753093324 H 0.0 **** 0.06
34753 H 80.25081843652413 102.1162893947684 105.75867658794778 H 0.0 **** 0.06
34754 H 78.77521359603097 101.19320167696142 105.38551880827492 H 0.0 **** 0.06
34755 H 80.22873224179773 100.99237941951027 104.37799598183983 H 0.0 **** 0.06
34756 C 80.85848369407519 103.60047944179655 60.26998192406751 C 0.0 **** -0.24
34757 H 80.46690071179651 102.77491544149632 60.864329956119036 H 0.0 **** 0.06
34758 H 81.84519230069638 103.8778585280252 60.639380954829335 H 0.0 **** 0.06
34759 H 80.18621103160112 104.45517285377689 60.34914884628037 H 0.0 **** 0.06
34760 H 80.93314310157709 103.29229868332995 59.22719320266407 H 0.0 **** 0.06
34761 C 11.37305013562165 35.19809998671573 73.69101647038914 C 0.0 **** -0.24
34762 H 10.62312426368441 34.41616858339347 73.56554029080135 H 0.0 **** 0.06
34763 H 10.980820035337803 36.14082810324737 73.30785717801297 H 0.0 **** 0.06
34764 H 12.274104982706188 34.92824220206734 73.14102226509317 H 0.0 **** 0.06
34765 H 11.611162990964445 35.30595901391956 74.74885501785667 H 0.0 **** 0.06
34766 C 5.685670057865991 109.88010110782642 44.65711726502735 C 0.0 **** -0.24
34767 H 6.22870603098896 110.77120998520492 44.342260738820016 H 0.0 **** 0.06
34768 H 5.3634926607866475 109.99849124855425 45.69243475803472 H 0.0 **** 0.06
34769 H 6.337462643615638 109.00971292871255 44.57679533324023 H 0.0 **** 0.06
34770 H 4.81413654744631 109.7412066905549 44.01862268072978 H 0.0 **** 0.06
34771 C 2.12409068350226 51.34861171716406 0.9608370291931578 C 0.0 **** -0.24
34772 H 3.16909006882301 51.14278264726414 1.1922423060630933 H 0.0 **** 0.06
34773 H 1.9074720214519232 52.398274571970546 1.161383832003878 H 0.0 **** 0.06
34774 H 1.4851505151309539 50.7196082595766 1.5810175384359013 H 0.0 **** 0.06
34775 H 1.9362239416516047 51.132209422268375 -0.09106690756206604 H 0.0 **** 0.06
34776 C 14.806978669423529 54.25091913053791 64.44139320484726 C 0.0 **** -0.24
34777 H 13.755500287990099 54.316261006824334 64.15997992691871 H 0.0 **** 0.06
34778 H 14.937412326953122 53.458398874174236 65.17888861580275 H 0.0 **** 0.06
34779 H 15.129091081332657 55.20069175006341 64.86706472455256 H 0.0 **** 0.06
34780 H 15.405377976183068 54.02713949169379 63.55781994087101 H 0.0 **** 0.06
34781 C 98.55168536675345 52.10896698905966 34.85318663572374 C 0.0 **** -0.24
34782 H 98.11007592555993 51.680023530045986 33.953098642325934 H 0.0 **** 0.06
34783 H 97.86627596154696 52.84238101738743 35.27983827711063 H 0.0 **** 0.06
34784 H 99.49307222423947 52.5963804096673 34.59862682380955 H 0.0 **** 0.06
34785 H 98.73709659244123 51.31792272963 35.57912212798975 H 0.0 **** 0.06
34786 C 32.110241374762 87.77627876333202 68.98084100969075 C 0.0 **** -0.24
34787 H 33.02580022341806 87.18488199323896 68.95878186254839 H 0.0 **** 0.06
34788 H 32.062303570351034 88.335915732109 69.91485286730682 H 0.0 **** 0.06
34789 H 31.24827342133844 87.11296755721514 68.90974094615615 H 0.0 **** 0.06
34790 H 32.10626370303663 88.46958207235188 68.13972660936172 H 0.0 **** 0.06
34791 C 14.105893882773493 8.150847492285806 63.62989268094259 C 0.0 **** -0.24
34792 H 14.236890952928675 8.670525392779865 64.57867260497699 H 0.0 **** 0.06
34793 H 14.782355162566425 8.57564476812476 62.88734422464904 H 0.0 **** 0.06
34794 H 13.076101857616962 8.267885452531914 63.291171154092694 H 0.0 **** 0.06
34795 H 14.328033591186713 7.0922309688037615 63.76162612790017 H 0.0 **** 0.06
34796 C 61.28172829835424 92.23033013169308 105.89002142090794 C 0.0 **** -0.24
34797 H 61.12141057600007 93.01016129693224 106.63411972365734 H 0.0 **** 0.06
34798 H 60.42026170647466 91.56185843484494 105.87384456709124 H 0.0 **** 0.06
34799 H 62.17749699812498 91.66372070299883 106.14566562437199 H 0.0 **** 0.06
34800 H 61.407254921943206 92.68549452957939 104.90778002964564 H 0.0 **** 0.06
34801 C 5.454380455660129 109.59031820935996 10.11640041686461 C 0.0 **** -0.24
34802 H 5.717594878007731 110.41130951358619 10.78417675285817 H 0.0 **** 0.06
34803 H 4.7795334480167355 108.90647125236097 10.631930846982517 H 0.0 **** 0.06
34804 H 6.357949510751354 109.05699929700882 9.822845347395022 H 0.0 **** 0.06
34805 H 4.9610491689448395 109.9867989299216 9.229287130180598 H 0.0 **** 0.06
34806 C 8.623905109705447 47.576392163233464 62.389602354613004 C 0.0 **** -0.24
34807 H 9.517782552456993 47.311680544053075 61.826183745832964 H 0.0 **** 0.06
34808 H 7.822708639299691 46.87671943338026 62.150025526616275 H 0.0 **** 0.06
34809 H 8.31416568516643 48.587378564853594 62.12503343599255 H 0.0 **** 0.06
34810 H 8.839704292735533 47.53042309593894 63.457283634558465 H 0.0 **** 0.06
34811 C 5.938016652998158 110.37312036485991 78.69450072491134 C 0.0 **** -0.24
34812 H 5.6596897531846935 111.31168689194544 78.21469788305524 H 0.0 **** 0.06
34813 H 5.672858142549757 110.41359514371356 79.75177437561499 H 0.0 **** 0.06
34814 H 7.013213866246275 110.21942611953955 78.59446651795997 H 0.0 **** 0.06
34815 H 5.407498657459499 109.54936417620706 78.21727424506355 H 0.0 **** 0.06
34816 C 84.32395390630512 12.94901851215566 21.616386217504783 C 0.0 **** -0.24
34817 H 83.76133492530445 13.792705082958832 21.21839938885134 H 0.0 **** 0.06
34818 H 84.84271847275133 12.442533776925444 20.802886226517597 H 0.0 **** 0.06
34819 H 83.6393882758064 12.25257244137731 22.101214569765183 H 0.0 **** 0.06
34820 H 85.05217999648862 13.308824188683943 22.34432814337871 H 0.0 **** 0.06
34821 C 75.45321797444694 91.54376407405587 39.563667316423164 C 0.0 **** -0.24
34822 H 76.07953009980287 90.68956621657321 39.307780938702024 H 0.0 **** 0.06
34823 H 75.62233618484348 92.34607533268661 38.8451066483664 H 0.0 **** 0.06
34824 H 75.70482041969804 91.89242194105958 40.56454820794099 H 0.0 **** 0.06
34825 H 74.4046071833701 91.24667665797337 39.53568099328186 H 0.0 **** 0.06
34826 C 16.887767387379995 69.83831237145986 46.96126855059246 C 0.0 **** -0.24
34827 H 17.914101427005676 69.87422200340602 47.329281823293506 H 0.0 **** 0.06
34828 H 16.337513672751925 69.06480692287757 47.49684851096276 H 0.0 **** 0.06
34829 H 16.892802589316204 69.60974361904407 45.89543239402168 H 0.0 **** 0.06
34830 H 16.41024220634108 70.80423355607151 47.12328601017684 H 0.0 **** 0.06
34831 C 84.49733715278768 32.82196713321822 97.27152657479712 C 0.0 **** -0.24
34832 H 83.73065192061068 32.29258490701838 96.7053720294 H 0.0 **** 0.06
34833 H 85.10664585415032 32.10176710686983 97.8187711513832 H 0.0 **** 0.06
34834 H 84.02291236227799 33.50541766464616 97.97478126056944 H 0.0 **** 0.06
34835 H 85.12975246622455 33.3868861291123 96.58610832998625 H 0.0 **** 0.06
34836 C 75.58490605669587 39.534808645690944 79.53101307063514 C 0.0 **** -0.24
34837 H 76.31373510578265 39.34336404242385 80.31785222533225 H 0.0 **** 0.06
34838 H 74.68116648722338 39.959764624539126 79.96850817938599 H 0.0 **** 0.06
34839 H 75.33977119432635 38.59911905216145 79.02797863532442 H 0.0 **** 0.06
34840 H 76.00337665048065 40.23635915120546 78.8093580416654 H 0.0 **** 0.06
34841 C 70.93231966596358 31.048661566751306 30.424812158269845 C 0.0 **** -0.24
34842 H 70.65010200058424 30.531969127784805 31.34161791566538 H 0.0 **** 0.06
34843 H 70.54453332325897 30.500138751793827 29.56488231345199 H 0.0 **** 0.06
34844 H 72.01897905578977 31.104646129047055 30.359124717455614 H 0.0 **** 0.06
34845 H 70.5148241742366 32.05559763994955 30.43188317107348 H 0.0 **** 0.06
34846 C 70.84424018493684 43.974192068624205 103.6452989300048 C 0.0 **** -0.24
34847 H 70.73896846380924 45.05523733912044 103.56089716806201 H 0.0 **** 0.06
34848 H 70.23711201529663 43.61400143219825 104.47686847651852 H 0.0 **** 0.06
34849 H 71.89062822722785 43.724324177953136 103.82431540862657 H 0.0 **** 0.06
34850 H 70.51051063346333 43.50308358246751 102.72133244860987 H 0.0 **** 0.06
34851 C 34.92910894463958 34.74220416712879 102.4403038016961 C 0.0 **** -0.24
34852 H 34.7565092446207 33.68971995650685 102.66410513435522 H 0.0 **** 0.06
34853 H 33.971363840664 35.2513459576536 102.32561394697143 H 0.0 **** 0.06
34854 H 35.49956286469043 34.82843648933732 101.51628974836798 H 0.0 **** 0.06
34855 H 35.48892139652696 35.20020590838908 103.25668926998618 H 0.0 **** 0.06
34856 C 100.96930347794046 107.59139159286876 53.42998877741631 C 0.0 **** -0.24
34857 H 100.4077428327679 107.93667649120857 54.297648663271325 H 0.0 **** 0.06
34858 H 100.54274837009228 108.02561768769043 52.5254429241809 H 0.0 **** 0.06
34859 H 100.91438664227331 106.50467165303179 53.37177702422051 H 0.0 **** 0.06
34860 H 102.0102488970852 107.89813935044074 53.52442977941037 H 0.0 **** 0.06
34861 C 56.99824952295774 73.58407325039093 21.03287340433218 C 0.0 **** -0.24
34862 H 56.1417338601348 73.72218112653314 20.374080724354712 H 0.0 **** 0.06
34863 H 57.62627793561834 72.77957097143951 20.647684848002143 H 0.0 **** 0.06
34864 H 56.64997636663365 73.32613225548891 22.032489296106633 H 0.0 **** 0.06
34865 H 57.57571090517874 74.50752422660173 21.076386380292348 H 0.0 **** 0.06
34866 C 11.960274480730504 87.75348880819325 39.794200861396064 C 0.0 **** -0.24
34867 H 12.64244034856327 87.48357054936483 40.60028310761851 H 0.0 **** 0.06
34868 H 11.332301026535532 86.89752499687364 39.546604339417115 H 0.0 **** 0.06
34869 H 12.534588739864034 88.04904820040875 38.91566938510937 H 0.0 **** 0.06
34870 H 11.332057182030098 88.58510780455634 40.11376089569342 H 0.0 **** 0.06
34871 C 110.24920613362436 5.859671777070787 71.86471004340495 C 0.0 **** -0.24
34872 H 110.95896708442667 6.584910349929146 72.26153001700655 H 0.0 **** 0.06
34873 H 109.24460737438962 6.281062576038124 71.89536686127039 H 0.0 **** 0.06
34874 H 110.28156566352149 4.951812691202292 72.46770383336946 H 0.0 **** 0.06
34875 H 110.51231154930376 5.619634400256928 70.83420368044162 H 0.0 **** 0.06
34876 C 72.72379575335714 40.94242828928432 15.631399551843366 C 0.0 **** -0.24
34877 H 73.67862374974686 41.08138049334295 15.12360968201504 H 0.0 **** 0.06
34878 H 71.9762737469814 41.598914992716544 15.184197278813617 H 0.0 **** 0.06
34879 H 72.83485983491983 41.183752628650154 16.68746155335293 H 0.0 **** 0.06
34880 H 72.40515943640091 39.90509745299565 15.526640837065699 H 0.0 **** 0.06
34881 C 16.100779797280637 35.06205604225187 68.1801503974512 C 0.0 **** -0.24
34882 H 15.685595164402656 36.04761149711891 68.3872562201124 H 0.0 **** 0.06
34883 H 17.17324309026577 35.07089377972687 68.37397531165028 H 0.0 **** 0.06
34884 H 15.922012311402938 34.80466379417811 67.13545703414579 H 0.0 **** 0.06
34885 H 15.6205959207023 34.32361499002849 68.82355468422855 H 0.0 **** 0.06
34886 C 51.37317504660798 59.09617310295572 82.18445109623266 C 0.0 **** -0.24
34887 H 51.79706679507886 58.241281653494 82.71083128366368 H 0.0 **** 0.06
34888 H 51.954526845126765 59.989609559896735 82.41579542144905 H 0.0 **** 0.06
34889 H 50.340325294643804 59.242707610198806 82.50154066518948 H 0.0 **** 0.06
34890 H 51.40023328956406 58.91235341664925 81.11069187045831 H 0.0 **** 0.06
34891 C 103.95529287297569 62.36202053342838 35.519381344170995 C 0.0 **** -0.24
34892 H 103.71276492220366 62.50099508164837 36.572299162814375 H 0.0 **** 0.06
34893 H 104.92612786621483 61.87355456534469 35.43225972664618 H 0.0 **** 0.06
34894 H 103.99008023717526 63.33164234529069 35.0235052798497 H 0.0 **** 0.06
34895 H 103.19272590838172 61.741218101395404 35.04998103170021 H 0.0 **** 0.06
34896 C 35.653439655026624 2.719404143124322 56.21553132347544 C 0.0 **** -0.24
34897 H 36.65569208525149 3.0800309336040925 56.44455765643449 H 0.0 **** 0.06
34898 H 35.47035761785811 1.787132396250314 56.75008824693964 H 0.0 **** 0.06
34899 H 35.5663970725454 2.5459476787404753 55.14280666606084 H 0.0 **** 0.06
34900 H 34.919942738909235 3.4649470178631248 56.5229607315341 H 0.0 **** 0.06
34901 C 27.75942221007847 32.287357232234 97.51143648125101 C 0.0 **** -0.24
34902 H 28.152091618809067 32.6586407947959 96.56471530031965 H 0.0 **** 0.06
34903 H 27.989871141631568 32.99855864261161 98.3046896430695 H 0.0 **** 0.06
34904 H 28.217125121655243 31.325093995378438 97.7413957181532 H 0.0 **** 0.06
34905 H 26.679313994474455 32.16646223953654 97.43270057940951 H 0.0 **** 0.06
34906 C 69.87181182483556 28.10673810035155 25.44236158322741 C 0.0 **** -0.24
34907 H 69.88698206369338 29.166625890515093 25.697048618150887 H 0.0 **** 0.06
34908 H 70.72909898138829 27.8732320161875 24.810570954966977 H 0.0 **** 0.06
34909 H 68.9514700018176 27.874449200918207 24.906841732049344 H 0.0 **** 0.06
34910 H 69.9206716764979 27.513885219762955 26.35621439041998 H 0.0 **** 0.06
34911 C 62.42300409790653 108.08549938718424 26.43977301903604 C 0.0 **** -0.24
34912 H 63.34375732637355 107.62340217793283 26.79657607354943 H 0.0 **** 0.06
34913 H 62.07244499669048 108.81091225726625 27.172790162187766 H 0.0 **** 0.06
34914 H 61.66312034184986 107.3168678610001 26.297123065091085 H 0.0 **** 0.06
34915 H 62.61402007033524 108.5875723665342 25.491289304019745 H 0.0 **** 0.06
34916 C 16.281552159641166 43.56056916919286 101.83996512137033 C 0.0 **** -0.24
34917 H 17.271635076140456 43.51466777216922 102.2935625342357 H 0.0 **** 0.06
34918 H 15.538501322938146 43.20245895499551 102.55332079543797 H 0.0 **** 0.06
34919 H 16.260315777798013 42.93409874845135 100.94793172131368 H 0.0 **** 0.06
34920 H 16.055069570736123 44.59104217151645 101.56577217348642 H 0.0 **** 0.06
34921 C 104.09512658071903 107.56353708152135 58.46155721368123 C 0.0 **** -0.24
34922 H 103.63052393958213 108.03760083110843 59.325761266950906 H 0.0 **** 0.06
34923 H 105.17207436578913 107.49546123752573 58.6191197045145 H 0.0 **** 0.06
34924 H 103.89478491627007 108.15683836534531 57.56921952461437 H 0.0 **** 0.06
34925 H 103.68383554916753 106.56198992765424 58.33150041267379 H 0.0 **** 0.06
34926 C 88.73960551668097 54.84538844723494 28.003361358641627 C 0.0 **** -0.24
34927 H 87.91036960293775 54.138797756674364 28.042350373192704 H 0.0 **** 0.06
34928 H 88.79393268167973 55.39172599972903 28.946145893451728 H 0.0 **** 0.06
34929 H 88.5810055946888 55.54682045882862 27.184942839370137 H 0.0 **** 0.06
34930 H 89.67072053873864 54.303094521924834 27.842657330137968 H 0.0 **** 0.06
34931 C 55.61437297080556 109.56777219578805 19.247916705957685 C 0.0 **** -0.24
34932 H 55.36536528971345 110.23283848781807 18.421154514491295 H 0.0 **** 0.06
34933 H 55.28707045784131 108.55506756674657 19.011140093509137 H 0.0 **** 0.06
34934 H 55.112645708745816 109.90967174586831 20.153205713692603 H 0.0 **** 0.06
34935 H 56.69344549084735 109.5744704571016 19.40607621296481 H 0.0 **** 0.06
34936 C 92.43653737531696 46.18996207031955 12.583160035829366 C 0.0 **** -0.24
34937 H 92.07504281295184 46.79654257307931 11.753179628936323 H 0.0 **** 0.06
34938 H 92.6169248508325 46.82908231654466 13.448163191173023 H 0.0 **** 0.06
34939 H 93.3652234792836 45.69625490105443 12.295208417856315 H 0.0 **** 0.06
34940 H 91.6888591722221 45.43896351736066 12.836077322421062 H 0.0 **** 0.06
34941 C 58.32362107701648 14.78554394617052 89.75316397423421 C 0.0 **** -0.24
34942 H 57.68734037806983 15.31228600241758 89.04187049228443 H 0.0 **** 0.06
34943 H 57.97819016737392 13.756225511028731 89.85574974264443 H 0.0 **** 0.06
34944 H 58.275580302268224 15.2837189905257 90.72162226232433 H 0.0 **** 0.06
34945 H 59.351255115486595 14.790212002047056 89.39274877487316 H 0.0 **** 0.06
34946 C 68.6396555170549 81.86908906405054 16.31177589243211 C 0.0 **** -0.24
34947 H 69.17173467954228 82.63910464509512 16.8698909993133 H 0.0 **** 0.06
34948 H 69.12460843102869 81.71874546393738 15.346551425171398 H 0.0 **** 0.06
34949 H 67.60771949661273 82.18085444157617 16.155904007354366 H 0.0 **** 0.06
34950 H 68.6562883952488 80.93594150023267 16.875050882297757 H 0.0 **** 0.06
34951 C 34.054759423311516 43.382201807556015 57.32435934435813 C 0.0 **** -0.24
34952 H 34.414620089910876 42.381697326608844 57.08596517973882 H 0.0 **** 0.06
34953 H 34.7775258603047 44.12043729611776 56.9775312152197 H 0.0 **** 0.06
34954 H 33.92941045033208 43.47527452498406 58.40360995892013 H 0.0 **** 0.06
34955 H 33.09748268139965 43.55098289918905 56.83124078789501 H 0.0 **** 0.06
34956 C 35.99335422226207 38.265004386241785 97.43966253358306 C 0.0 **** -0.24
34957 H 35.09157598675691 37.783793694936 97.06246634703884 H 0.0 **** 0.06
34958 H 35.89478846576793 39.34685190697954 97.3427732390141 H 0.0 **** 0.06
34959 H 36.854040020140076 37.925772267713135 96.86385421109743 H 0.0 **** 0.06
34960 H 36.133144613514276 38.00523142745344 98.48899059891527 H 0.0 **** 0.06
34961 C 87.98019925014174 96.55630285855375 52.51999901948954 C 0.0 **** -0.24
34962 H 87.19985915859837 96.37447218381777 51.780677909629304 H 0.0 **** 0.06
34963 H 88.62724840761462 95.68049297844476 52.58700856542004 H 0.0 **** 0.06
34964 H 87.52253283672391 96.74627399726421 53.4913425221682 H 0.0 **** 0.06
34965 H 88.570463120304 97.42169498027033 52.22038974115603 H 0.0 **** 0.06
34966 C 9.081261866733684 109.1357414356396 102.6669917596121 C 0.0 **** -0.24
34967 H 8.180633114957047 108.54877284650212 102.48395757679661 H 0.0 **** 0.06
34968 H 9.929044639272604 108.66533951116082 102.16761795529912 H 0.0 **** 0.06
34969 H 9.272225601189419 109.18317181835494 103.7393834673337 H 0.0 **** 0.06
34970 H 8.94278025419905 110.14435972937366 102.27735510516915 H 0.0 **** 0.06
34971 C 70.61818300820552 4.731617627565811 52.62900356878069 C 0.0 **** -0.24
34972 H 70.22562172899038 3.7625123748667875 52.31973439156971 H 0.0 **** 0.06
34973 H 70.33442253663742 5.488545597179552 51.89727013702 H 0.0 **** 0.06
34974 H 71.70461065662117 4.679125335575918 52.694189586991286 H 0.0 **** 0.06
34975 H 70.2080017745361 4.99536358356977 53.60375181837546 H 0.0 **** 0.06
34976 C 62.22082643231454 87.66109714799813 61.645765101729 C 0.0 **** -0.24
34977 H 61.548324631985 88.42867688298553 62.02729800408551 H 0.0 **** 0.06
34978 H 61.639350347749314 86.79900673772474 61.318138107891244 H 0.0 **** 0.06
34979 H 62.90935303148569 87.35647545469355 62.43468242050618 H 0.0 **** 0.06
34980 H 62.787088640465925 88.0596182154986 60.80392615912163 H 0.0 **** 0.06
34981 C 10.003656581207807 110.65322416521555 87.0185613005993 C 0.0 **** -0.24
34982 H 10.70591419172662 111.41394878994802 86.67808661739667 H 0.0 **** 0.06
34983 H 9.60585233082999 110.93658391349595 87.99279984534245 H 0.0 **** 0.06
34984 H 10.517188870181442 109.69532085603343 87.09954004851672 H 0.0 **** 0.06
34985 H 9.186360330629881 110.56752538895807 86.30268192867292 H 0.0 **** 0.06
34986 C 108.62434017100938 7.615563781960134 99.21274796065151 C 0.0 **** -0.24
34987 H 109.18275324199422 8.462021416424818 98.81212209665466 H 0.0 **** 0.06
34988 H 107.57276118902561 7.714943830265554 98.94548978374779 H 0.0 **** 0.06
34989 H 108.7243714325172 7.595755540075743 100.29789961112644 H 0.0 **** 0.06
34990 H 109.02071530219916 6.68956097267386 98.79477386528849 H 0.0 **** 0.06
34991 C 64.43092564665494 5.519069641335234 56.67292662675578 C 0.0 **** -0.24
34992 H 63.36445207411583 5.73744436042548 56.61488053282053 H 0.0 **** 0.06
34993 H 64.78859903996161 5.724081773003709 57.68252286228787 H 0.0 **** 0.06
34994 H 64.96957375173332 6.144068800527624 55.96150906985998 H 0.0 **** 0.06
34995 H 64.59900937281463 4.468342207297463 56.433284116126245 H 0.0 **** 0.06
34996 C 93.6921294827525 71.7057169497959 101.70073301524086 C 0.0 **** -0.24
34997 H 94.07347832994589 71.93549356966773 100.70595641795035 H 0.0 **** 0.06
34998 H 93.15033246400378 72.56832110323157 102.08995255223563 H 0.0 **** 0.06
34999 H 94.5235983881455 71.46796428516292 102.3635307329573 H 0.0 **** 0.06
35000 H 93.01829815939585 70.85069152177908 101.64252118513018 H 0.0 **** 0.06
35001 C 89.51544442052761 21.450953662644963 36.48146124615095 C 0.0 **** -0.24
35002 H 89.16182035458067 22.444093266131965 36.75489749332849 H 0.0 **** 0.06
35003 H 88.89145613770322 21.050615162781767 35.68248475410602 H 0.0 **** 0.06
35004 H 89.45973520917542 20.794001726984433 37.35019390600873 H 0.0 **** 0.06
35005 H 90.54909611554854 21.513618836823024 36.13909586351151 H 0.0 **** 0.06
35006 C 62.10197387465848 81.67486140490689 7.654526574794204 C 0.0 **** -0.24
35007 H 61.268040299684515 81.95289268416843 7.0106825790932845 H 0.0 **** 0.06
35008 H 62.71445981876764 82.55370180722969 7.8555371151987 H 0.0 **** 0.06
35009 H 62.706199351938835 80.91549921888236 7.158714768780499 H 0.0 **** 0.06
35010 H 61.71753940470012 81.27704252689784 8.594248907154522 H 0.0 **** 0.06
35011 C 100.65982942611247 99.36821524314738 64.76083356568722 C 0.0 **** -0.24
35012 H 101.03061523424623 99.75495766560843 63.81154492682265 H 0.0 **** 0.06
35013 H 101.46170430301314 99.39213707327133 65.49943847388516 H 0.0 **** 0.06
35014 H 100.31896415087014 98.34217452041304 64.62636804121462 H 0.0 **** 0.06
35015 H 99.82973157406545 99.98530859936847 65.10450938873123 H 0.0 **** 0.06
35016 C 102.37118813785462 68.77087410254228 97.60060603802513 C 0.0 **** -0.24
35017 H 101.45155632911234 68.22426287494363 97.81037318135299 H 0.0 **** 0.06
35018 H 102.12981659144168 69.80504972424012 97.3528130880412 H 0.0 **** 0.06
35019 H 102.88526952559313 68.30556448116641 96.7597083006487 H 0.0 **** 0.06
35020 H 103.01560096869432 68.74742371904688 98.4784003340701 H 0.0 **** 0.06
35021 C 45.98483532601537 10.791744097186818 50.211741737429236 C 0.0 **** -0.24
35022 H 46.867869658715705 10.183130059495197 50.40758624962427 H 0.0 **** 0.06
35023 H 45.20624707960508 10.16981226334002 49.76918563228162 H 0.0 **** 0.06
35024 H 46.24384504367379 11.595903936985792 49.52393392527699 H 0.0 **** 0.06
35025 H 45.6230149415548 11.217145278665914 51.1477959958583 H 0.0 **** 0.06
35026 C 42.83385781689083 45.699210035717385 90.2430715606181 C 0.0 **** -0.24
35027 H 43.536075208739646 46.0286985302163 91.00969784700513 H 0.0 **** 0.06
35028 H 43.10421507959819 44.69774499113993 89.90922666345371 H 0.0 **** 0.06
35029 H 42.87044855880862 46.38719213748095 89.3975217081711 H 0.0 **** 0.06
35030 H 41.82543011044643 45.685592422513395 90.65716439744932 H 0.0 **** 0.06
35031 C 89.54184617435487 75.96811724484344 102.51530548624646 C 0.0 **** -0.24
35032 H 90.4027840821526 75.37753727362933 102.82764972088354 H 0.0 **** 0.06
35033 H 89.86768847314681 76.9732484433734 102.24901097775536 H 0.0 **** 0.06
35034 H 88.82289332799326 76.02214626791316 103.33268996889295 H 0.0 **** 0.06
35035 H 89.0736580058479 75.49665353799692 101.64951411812409 H 0.0 **** 0.06
35036 C 102.4841448912888 99.95593775022593 73.66987917485474 C 0.0 **** -0.24
35037 H 103.39013861273013 99.86072582566314 74.26836041622033 H 0.0 **** 0.06
35038 H 102.26220139777413 99.00226941012914 73.19169356294742 H 0.0 **** 0.06
35039 H 102.63133197672568 100.72102982192175 72.90715586369151 H 0.0 **** 0.06
35040 H 101.65258402171226 100.24175361997982 74.3142521689849 H 0.0 **** 0.06
35041 C 107.7284962526267 0.8939002078752196 37.38423292143102 C 0.0 **** -0.24
35042 H 106.67506756330882 1.1489064614621611 37.49537466951824 H 0.0 **** 0.06
35043 H 108.26490293093025 1.1600398164376315 38.29512387273682 H 0.0 **** 0.06
35044 H 108.14806119733781 1.4442605058480638 36.54204319398798 H 0.0 **** 0.06
35045 H 107.82594717922271 -0.1769020971601094 37.20367959703434 H 0.0 **** 0.06
35046 C 107.61525885621012 44.882506577373135 96.02447496030686 C 0.0 **** -0.24
35047 H 106.57001169392422 44.72166750202203 95.75876470623143 H 0.0 **** 0.06
35048 H 107.78977283788633 45.946636584574264 96.18297077105831 H 0.0 **** 0.06
35049 H 108.25336139018755 44.52439421549386 95.21591916232808 H 0.0 **** 0.06
35050 H 107.84615424882494 44.33552233079081 96.93859327002312 H 0.0 **** 0.06
35051 C 65.54813559758938 25.23152347463426 32.86213435398068 C 0.0 **** -0.24
35052 H 66.04151997636136 24.530668626283926 32.187965888604175 H 0.0 **** 0.06
35053 H 66.29496959448178 25.874851106297683 33.32719592164419 H 0.0 **** 0.06
35054 H 65.01383137942106 24.677579578770064 33.634049439175726 H 0.0 **** 0.06
35055 H 64.8426343270694 25.841878362261838 32.298562185596104 H 0.0 **** 0.06
35056 C 71.9625298432012 99.12005661233854 46.583797694502806 C 0.0 **** -0.24
35057 H 72.03099601028043 99.60895039490703 45.61227519971585 H 0.0 **** 0.06
35058 H 71.0238125393941 99.39589081567175 47.064375527934565 H 0.0 **** 0.06
35059 H 72.79827529877306 99.43446754153837 47.208854514931296 H 0.0 **** 0.06
35060 H 71.99760649906216 98.03830053755712 46.44833464106202 H 0.0 **** 0.06
35061 C 96.78944726895894 91.34914327158361 8.6892803220924 C 0.0 **** -0.24
35062 H 96.99416315249853 92.37520503283565 8.996764401336463 H 0.0 **** 0.06
35063 H 96.54147128434033 90.7497133600898 9.565087613214601 H 0.0 **** 0.06
35064 H 97.67168101434474 90.93401006003054 8.20215327498343 H 0.0 **** 0.06
35065 H 95.95131981476278 91.33911310040338 7.992758622665804 H 0.0 **** 0.06
35066 C 97.16715761265834 31.8195809259484 65.50483824367207 C 0.0 **** -0.24
35067 H 96.7606278987069 31.133279129519337 64.76167662533692 H 0.0 **** 0.06
35068 H 96.48565484806483 31.88043771900928 66.35371938780482 H 0.0 **** 0.06
35069 H 97.28211518751232 32.80830229114605 65.06042339335514 H 0.0 **** 0.06
35070 H 98.1378049907151 31.458177805285487 65.84163653354982 H 0.0 **** 0.06
35071 C 53.482020185691894 8.238055114723124 74.82450568653546 C 0.0 **** -0.24
35072 H 54.24277890995328 8.404730048145524 74.06137044138062 H 0.0 **** 0.06
35073 H 53.12801009247679 9.198475333961966 75.19930108825689 H 0.0 **** 0.06
35074 H 53.912164977874134 7.663774320501943 75.64513091542048 H 0.0 **** 0.06
35075 H 52.64794996240145 7.686204049953858 74.39190083291926 H 0.0 **** 0.06
35076 C 92.4369198561855 35.72408419359488 36.91290367912717 C 0.0 **** -0.24
35077 H 92.77767748358191 35.99866352583942 35.91453342265339 H 0.0 **** 0.06
35078 H 92.68540348426737 34.67981520425906 37.10630474908095 H 0.0 **** 0.06
35079 H 91.35753161962896 35.85983576978461 36.97833501987711 H 0.0 **** 0.06
35080 H 92.92921153586197 36.35762243733646 37.65132765783409 H 0.0 **** 0.06
35081 C 27.4198789084789 75.92468724450521 83.08757254500608 C 0.0 **** -0.24
35082 H 27.4942300288956 75.50825593836964 84.09190395740245 H 0.0 **** 0.06
35083 H 26.69502076932018 75.35118358553413 82.50933038764401 H 0.0 **** 0.06
35084 H 28.394205146701978 75.87485048004345 82.60057618634204 H 0.0 **** 0.06
35085 H 27.09614185744433 76.96368247406235 83.1478548715902 H 0.0 **** 0.06
35086 C 5.153062006321052 78.60865684234417 0.8750357110159825 C 0.0 **** -0.24
35087 H 4.87695594439751 77.85439829847802 0.13727606852577878 H 0.0 **** 0.06
35088 H 5.972458872553142 79.21350403224287 0.4864325813704511 H 0.0 **** 0.06
35089 H 5.468145207071011 78.11735235860888 1.7955172179826917 H 0.0 **** 0.06
35090 H 4.2944199300472246 79.24816526896731 1.079054035580441 H 0.0 **** 0.06
35091 C 90.20974325133716 84.65142880806106 73.11035116211559 C 0.0 **** -0.24
35092 H 89.40118234118597 84.32424595847753 72.45772316629204 H 0.0 **** 0.06
35093 H 91.16361283553528 84.52816912916104 72.59741685573582 H 0.0 **** 0.06
35094 H 90.20583424803007 84.05090046806977 74.02038423838408 H 0.0 **** 0.06
35095 H 90.0680653900366 85.70149177504537 73.36692844599284 H 0.0 **** 0.06
35096 C 36.80131343557923 67.75865927338481 80.32900226484358 C 0.0 **** -0.24
35097 H 37.88319472723026 67.73287300744343 80.46572006758512 H 0.0 **** 0.06
35098 H 36.56941701894709 67.70588965020185 79.26498432308637 H 0.0 **** 0.06
35099 H 36.40614396961888 68.68712053465548 80.74150259697312 H 0.0 **** 0.06
35100 H 36.35017159967208 66.91062536145141 80.84374417796543 H 0.0 **** 0.06
35101 C 71.46405489475582 85.91621311506344 10.688872844938501 C 0.0 **** -0.24
35102 H 70.87790313782043 85.9548436022601 9.77133947970242 H 0.0 **** 0.06
35103 H 71.8682833159788 86.9054050777371 10.904175850016216 H 0.0 **** 0.06
35104 H 72.2833529171952 85.2067514940419 10.567589084893754 H 0.0 **** 0.06
35105 H 70.82608877368527 85.59641008780477 11.513142226683314 H 0.0 **** 0.06
35106 C 39.48855394915168 13.134765016822186 35.340098278100726 C 0.0 **** -0.24
35107 H 38.92960454788289 13.301442916975645 34.41885356783769 H 0.0 **** 0.06
35108 H 38.90354916492316 12.504356288542425 36.00954876529346 H 0.0 **** 0.06
35109 H 39.68569385881409 14.092355823114247 35.82316089347415 H 0.0 **** 0.06
35110 H 40.43255669128226 12.6431601623419 35.108728155764254 H 0.0 **** 0.06
35111 C 22.781321433382487 20.373060853016767 106.31954703514097 C 0.0 **** -0.24
35112 H 22.124929494560803 19.73051181746706 106.90602642096054 H 0.0 **** 0.06
35113 H 22.8477513812569 19.99212916633371 105.30068746755515 H 0.0 **** 0.06
35114 H 23.774916510422628 20.38342536227563 106.76943948232079 H 0.0 **** 0.06
35115 H 22.37956017439788 21.385531462661845 106.30428863576492 H 0.0 **** 0.06
35116 C 1.8255876968289044 89.24942945477932 61.17502952074037 C 0.0 **** -0.24
35117 H 1.380978325786316 89.24541420812704 62.17005519881488 H 0.0 **** 0.06
35118 H 2.4626774996793444 90.12807348711823 61.066369224731986 H 0.0 **** 0.06
35119 H 1.036258246949501 89.27746017672143 60.42436182391286 H 0.0 **** 0.06
35120 H 2.423130834405498 88.34813759571097 61.04095909912992 H 0.0 **** 0.06
35121 C 107.17830761369456 109.4394561409753 97.28404250287615 C 0.0 **** -0.24
35122 H 107.218737508335 108.81567255519334 96.39092145354505 H 0.0 **** 0.06
35123 H 107.62683650742031 110.41002857853607 97.06931764004668 H 0.0 **** 0.06
35124 H 107.72866943056223 108.95537746361933 98.0903937928069 H 0.0 **** 0.06
35125 H 106.13967743432677 109.57699400997643 97.5843280398571 H 0.0 **** 0.06
35126 C 12.379647180536665 23.807683270467635 62.24016337601435 C 0.0 **** -0.24
35127 H 12.617687347027868 24.826372749788504 62.54493757804512 H 0.0 **** 0.06
35128 H 13.288357227175624 23.206405930219546 62.23961373055994 H 0.0 **** 0.06
35129 H 11.950767385538313 23.81968010032034 61.237931889887506 H 0.0 **** 0.06
35130 H 11.660056534488604 23.379696289239575 62.938032398744625 H 0.0 **** 0.06
35131 C 35.832222955786904 37.746845196182676 35.92041355350335 C 0.0 **** -0.24
35132 H 36.78042471376398 37.93751741512574 35.41975083022163 H 0.0 **** 0.06
35133 H 35.03278818488846 37.69852292532897 35.18006038780078 H 0.0 **** 0.06
35134 H 35.6261478060641 38.550148705583354 36.6270224862285 H 0.0 **** 0.06
35135 H 35.88917937547413 36.79798049652072 36.4555720106998 H 0.0 **** 0.06
35136 C 104.08656205011351 95.88528617693885 88.16924552262049 C 0.0 **** -0.24
35137 H 103.37541517995666 96.66636406182079 88.43971962886798 H 0.0 **** 0.06
35138 H 103.93319333873757 95.01663970287655 88.81040472758241 H 0.0 **** 0.06
35139 H 105.10205804774446 96.25785317732374 88.2981267381328 H 0.0 **** 0.06
35140 H 103.93256430287158 95.60063328683677 87.12739799890335 H 0.0 **** 0.06
35141 C 23.854293312959413 76.74152844295102 72.50843734030921 C 0.0 **** -0.24
35142 H 24.74713172207396 76.55055226874453 73.10269767153852 H 0.0 **** 0.06
35143 H 23.51745097160554 75.81137236526422 72.05034055984619 H 0.0 **** 0.06
35144 H 24.08401946415458 77.46867705672724 71.7289704903029 H 0.0 **** 0.06
35145 H 23.06702256276452 77.134809391396 73.15141135386774 H 0.0 **** 0.06
35146 C 46.38517600161725 69.83239467691374 59.95410985438339 C 0.0 **** -0.24
35147 H 46.7147567064618 69.20427422962649 59.126984740591766 H 0.0 **** 0.06
35148 H 45.430046319767825 69.46431950245898 60.33097557703607 H 0.0 **** 0.06
35149 H 46.26760296938846 70.85898496310449 59.60703392363396 H 0.0 **** 0.06
35150 H 47.12723301199247 69.80081035700613 60.752116479596 H 0.0 **** 0.06
35151 C 6.5343913005565994 86.7042811902765 36.13472393222245 C 0.0 **** -0.24
35152 H 5.840199055597338 86.00916179638166 36.60665811474666 H 0.0 **** 0.06
35153 H 6.550962945270896 87.63839946039849 36.69747986720763 H 0.0 **** 0.06
35154 H 6.2116931673096385 86.90162940033507 35.112424888766554 H 0.0 **** 0.06
35155 H 7.5329692805828525 86.268805836552 36.12381951931985 H 0.0 **** 0.06
35156 C 91.72667515634419 10.885342877697205 36.56528031456162 C 0.0 **** -0.24
35157 H 92.45746599379396 10.08850682305494 36.43105017146459 H 0.0 **** 0.06
35158 H 92.24681106589259 11.835797454927349 36.68953620560811 H 0.0 **** 0.06
35159 H 91.12484783444063 10.681919191254156 37.45099325241915 H 0.0 **** 0.06
35160 H 91.07996590735905 10.93694757237056 35.68976343835581 H 0.0 **** 0.06
35161 C 83.53501257572069 16.80775838565839 7.700972400338799 C 0.0 **** -0.24
35162 H 82.65382255871867 16.174071338765046 7.603732580479232 H 0.0 **** 0.06
35163 H 83.62731946617149 17.439970892729974 6.816870820509223 H 0.0 **** 0.06
35164 H 84.42325126745274 16.18224199919817 7.795814719156681 H 0.0 **** 0.06
35165 H 83.43565701054 17.43474931194038 8.587471481209946 H 0.0 **** 0.06
35166 C 71.88563152260241 73.01186191176234 75.9694203318036 C 0.0 **** -0.24
35167 H 70.9953807684351 73.18865860295406 76.57300732419898 H 0.0 **** 0.06
35168 H 72.50089995699983 73.91138171943334 75.95794919586422 H 0.0 **** 0.06
35169 H 71.59044959165243 72.76014647690366 74.95119360957443 H 0.0 **** 0.06
35170 H 72.45580493548118 72.18717946181224 76.3965278633483 H 0.0 **** 0.06
35171 C 95.32224096178001 48.13399877118508 16.73531607219593 C 0.0 **** -0.24
35172 H 96.10249378600744 48.54381676435554 16.09403027863472 H 0.0 **** 0.06
35173 H 95.69254743250325 48.067806304879866 17.759110233818717 H 0.0 **** 0.06
35174 H 95.04828735192733 47.14020416266919 16.38378465892626 H 0.0 **** 0.06
35175 H 94.44832934246627 48.78415063919789 16.7059950811761 H 0.0 **** 0.06
35176 C 33.79805209872819 104.05177610984735 68.02042108901313 C 0.0 **** -0.24
35177 H 34.50925569317718 103.22774075270995 68.07940346211004 H 0.0 **** 0.06
35178 H 34.30250030117759 104.94243172824709 67.64414542757527 H 0.0 **** 0.06
35179 H 33.393532888895834 104.25421196622727 69.01241085343992 H 0.0 **** 0.06
35180 H 32.98502939643441 103.78155033894693 67.34596879947308 H 0.0 **** 0.06
35181 C 24.62052691078651 13.986626271039142 88.82580650486933 C 0.0 **** -0.24
35182 H 25.372673331678413 13.355904891422313 89.30035372707454 H 0.0 **** 0.06
35183 H 23.952694316162933 14.389721983195585 89.5872335939509 H 0.0 **** 0.06
35184 H 24.046025628638347 13.39342657051995 88.11462431685283 H 0.0 **** 0.06
35185 H 25.112792096505274 14.806197179742497 88.3013455496949 H 0.0 **** 0.06
35186 C 78.30184615188143 70.08141210736844 21.44794087824789 C 0.0 **** -0.24
35187 H 78.4288744431588 70.98940416335935 20.856627020292592 H 0.0 **** 0.06
35188 H 79.01590905642539 70.08107493617342 22.27159480798258 H 0.0 **** 0.06
35189 H 78.47338008463598 69.20980995352492 20.816165969980545 H 0.0 **** 0.06
35190 H 77.28713019428966 70.04736927597575 21.84523342824866 H 0.0 **** 0.06
35191 C 24.54935806205907 38.36609765876656 12.034216849430493 C 0.0 **** -0.24
35192 H 23.78316640005542 37.795204989332774 12.557954939488013 H 0.0 **** 0.06
35193 H 25.138641713498345 38.931691794079 12.756398138274903 H 0.0 **** 0.06
35194 H 24.074510409829458 39.053331459519825 11.333764740287165 H 0.0 **** 0.06
35195 H 25.201113724852974 37.684162392134766 11.488749579671776 H 0.0 **** 0.06
35196 C 51.94556899398333 54.85618396504174 37.554714017764184 C 0.0 **** -0.24
35197 H 52.498681317332 55.01042545192024 36.628905727657354 H 0.0 **** 0.06
35198 H 51.75838548299461 53.790558134372986 37.69266230732333 H 0.0 **** 0.06
35199 H 50.994866375332435 55.388150568573735 37.50264802686317 H 0.0 **** 0.06
35200 H 52.527997208303674 55.23555185813916 38.393935725723026 H 0.0 **** 0.06
35201 C 99.6927559287962 83.82845682616693 59.23606599002545 C 0.0 **** -0.24
35202 H 99.96931896123147 84.37898932759606 60.13493336469668 H 0.0 **** 0.06
35203 H 99.00258049246332 83.02741440309893 59.49873989493341 H 0.0 **** 0.06
35204 H 100.58789607709855 83.40324129019257 58.78109165659396 H 0.0 **** 0.06
35205 H 99.2121517509521 84.50524799444395 58.52960574975771 H 0.0 **** 0.06
35206 C 2.387523414896677 4.086414645275212 9.544345899771924 C 0.0 **** -0.24
35207 H 2.7528322302740236 4.435715563847708 8.57877039565405 H 0.0 **** 0.06
35208 H 1.5168241829951512 3.4477530222244326 9.393336144624387 H 0.0 **** 0.06
35209 H 2.108414126453596 4.943414704042141 10.157797336221197 H 0.0 **** 0.06
35210 H 3.172025229297475 3.5208326851326888 10.046150276635476 H 0.0 **** 0.06
35211 C 15.74762218759335 9.629051558363187 29.247618563961396 C 0.0 **** -0.24
35212 H 16.594198351655223 8.942710340242684 29.252227919206327 H 0.0 **** 0.06
35213 H 14.82961997894219 9.074253958819725 29.440149794694 H 0.0 **** 0.06
35214 H 15.680581067532898 10.1165045148569 28.27472141527636 H 0.0 **** 0.06
35215 H 15.88750037659392 10.382823813085537 30.023334543543285 H 0.0 **** 0.06
35216 C 64.94379799473359 97.71619445061773 63.09429709213259 C 0.0 **** -0.24
35217 H 65.97280184148201 98.05276827126241 63.224231399499104 H 0.0 **** 0.06
35218 H 64.5477465450808 98.10958186982538 62.15822107670374 H 0.0 **** 0.06
35219 H 64.33742303629458 98.07501481677303 63.92527665231472 H 0.0 **** 0.06
35220 H 64.91963606729678 96.62620850210143 63.070304974538544 H 0.0 **** 0.06
35221 C 79.6151318927378 23.232047260290756 13.008180705994025 C 0.0 **** -0.24
35222 H 80.4790174994834 22.599357904779538 13.210248852017113 H 0.0 **** 0.06
35223 H 79.93203496565968 24.10827447970499 12.441479641127017 H 0.0 **** 0.06
35224 H 79.16805773925932 23.54950344197283 13.949665678128472 H 0.0 **** 0.06
35225 H 78.88186835313547 22.669905207071054 12.429463460767604 H 0.0 **** 0.06
35226 C 85.83773354780703 99.26777364192932 82.48770914210985 C 0.0 **** -0.24
35227 H 85.55050440512161 99.9708073056812 83.27029771490817 H 0.0 **** 0.06
35228 H 86.26067018386689 98.37185454628862 82.94242588729222 H 0.0 **** 0.06
35229 H 86.57913539830565 99.73119146662975 81.83796159705295 H 0.0 **** 0.06
35230 H 84.95877375883805 98.99869833630615 81.90200964859696 H 0.0 **** 0.06
35231 C 35.78477952519245 5.845121692914162 32.62537361833154 C 0.0 **** -0.24
35232 H 35.681310454887694 4.838506820852032 33.03062710444544 H 0.0 **** 0.06
35233 H 36.12053186648842 5.786879219394649 31.58948947160701 H 0.0 **** 0.06
35234 H 36.51543011682725 6.40009569953088 33.214602218856555 H 0.0 **** 0.06
35235 H 34.82174833548504 6.35407953520135 32.66714178443465 H 0.0 **** 0.06
35236 C 84.22220551996405 73.02417269575523 100.1486114195733 C 0.0 **** -0.24
35237 H 83.60001118579252 72.92607737969675 99.25802041260901 H 0.0 **** 0.06
35238 H 84.70745757056022 72.070353744494 100.35952530947058 H 0.0 **** 0.06
35239 H 83.60120247856771 73.31171868210085 100.99558670790198 H 0.0 **** 0.06
35240 H 84.98147139547982 73.78817551559314 99.97783139703652 H 0.0 **** 0.06
35241 C 92.6211021715302 16.934608758694054 37.14010123316558 C 0.0 **** -0.24
35242 H 92.28888738963002 17.93109624346306 36.847759311557994 H 0.0 **** 0.06
35243 H 91.96829941228907 16.548580748914247 37.92296051919314 H 0.0 **** 0.06
35244 H 93.64425963455943 16.988444556396274 37.51239313073694 H 0.0 **** 0.06
35245 H 92.58362578902734 16.271748718833635 36.27474240754441 H 0.0 **** 0.06
35246 C 84.96285440064909 25.29301269899463 99.07898942710229 C 0.0 **** -0.24
35247 H 86.04311847469143 25.15027427581333 99.10190215196987 H 0.0 **** 0.06
35248 H 84.65990898480148 25.909134385312484 99.92552286963813 H 0.0 **** 0.06
35249 H 84.46758038452604 24.32412665888137 99.13784681197875 H 0.0 **** 0.06
35250 H 84.68188570512102 25.78793634745307 98.14881312268112 H 0.0 **** 0.06
35251 C 101.78422336394834 21.71366659141941 45.12554244117214 C 0.0 **** -0.24
35252 H 102.17251611941532 21.327389207562035 44.18281486576285 H 0.0 **** 0.06
35253 H 100.96925001054785 21.077748843521775 45.47097662107302 H 0.0 **** 0.06
35254 H 101.41508311272923 22.729270584119647 44.97689244046522 H 0.0 **** 0.06
35255 H 102.58036579576822 21.72232971365267 45.87070884209575 H 0.0 **** 0.06
35256 C 13.522305941774448 0.17750052546827533 101.62509021057576 C 0.0 **** -0.24
35257 H 13.54022511938092 -0.558557775422031 100.82139511363965 H 0.0 **** 0.06
35258 H 13.514249653811362 -0.33588505675800207 102.58689429761563 H 0.0 **** 0.06
35259 H 12.626855557746921 0.7931456547434834 101.53420309917095 H 0.0 **** 0.06
35260 H 14.40652630441059 0.811214566879471 101.55822029088426 H 0.0 **** 0.06
35261 C 7.77938343844402 31.35173977194171 80.53273971327962 C 0.0 **** -0.24
35262 H 8.122446178661862 31.25157083938501 81.56218511829042 H 0.0 **** 0.06
35263 H 7.25087874017342 30.444625765964204 80.2360651428508 H 0.0 **** 0.06
35264 H 8.637528210028709 31.502847920359017 79.87683600212677 H 0.0 **** 0.06
35265 H 7.107561804695564 32.2066968618998 80.45421699935184 H 0.0 **** 0.06
35266 C 62.517318649450885 102.24670825335161 95.53535359141952 C 0.0 **** -0.24
35267 H 63.50678286740214 102.68688671787788 95.4085890422786 H 0.0 **** 0.06
35268 H 61.75935011700719 103.02639832722286 95.44845181382443 H 0.0 **** 0.06
35269 H 62.450070931071764 101.7827510530953 96.51955388043042 H 0.0 **** 0.06
35270 H 62.353492480721 101.49274599647748 94.7658312712323 H 0.0 **** 0.06
35271 C 44.73585574882439 20.158645595942847 37.07265967463465 C 0.0 **** -0.24
35272 H 45.2216103013357 20.553268187226777 37.96520730259084 H 0.0 **** 0.06
35273 H 45.49144597627917 19.912866457302304 36.325921569833554 H 0.0 **** 0.06
35274 H 44.05610285276269 20.908989565610266 36.66739220670377 H 0.0 **** 0.06
35275 H 44.17403544490524 19.26142805629135 37.33067967355922 H 0.0 **** 0.06
35276 C 60.53711349463583 39.12779247775893 77.25635450737849 C 0.0 **** -0.24
35277 H 60.673443936925025 39.29830835060898 76.1883493158366 H 0.0 **** 0.06
35278 H 61.251518793762244 39.73325140341552 77.81494678611273 H 0.0 **** 0.06
35279 H 60.70054329339436 38.07293486294793 77.48003265489399 H 0.0 **** 0.06
35280 H 59.52289572374599 39.405762314014225 77.54249398202194 H 0.0 **** 0.06
35281 C 27.557680961016644 82.26818823765302 46.21756131235651 C 0.0 **** -0.24
35282 H 28.254909909484567 82.94058080081408 45.71844536519353 H 0.0 **** 0.06
35283 H 26.539583611404723 82.6363604136223 46.08580079372621 H 0.0 **** 0.06
35284 H 27.79374872430114 82.22530981988723 47.28094750607613 H 0.0 **** 0.06
35285 H 27.642345220764355 81.2710524413319 45.785875218733 H 0.0 **** 0.06
35286 C 34.637638109310636 49.0743623256612 54.59057386747094 C 0.0 **** -0.24
35287 H 34.13756540468377 48.8929878208595 53.638693959997454 H 0.0 **** 0.06
35288 H 35.667114637121514 49.383187486226774 54.407339415966106 H 0.0 **** 0.06
35289 H 34.631477289454295 48.159941997057736 55.18446634877961 H 0.0 **** 0.06
35290 H 34.112975442160966 49.86230390108798 55.131996022013766 H 0.0 **** 0.06
35291 C 18.461044696206926 93.62951329903059 12.612713390484942 C 0.0 **** -0.24
35292 H 17.544120679510485 93.2549337447886 12.157685658038474 H 0.0 **** 0.06
35293 H 18.247575352272946 93.9812169536224 13.622322292026695 H 0.0 **** 0.06
35294 H 18.85277040777791 94.45241762222955 12.015596043022924 H 0.0 **** 0.06
35295 H 19.199351693853515 92.82823154046667 12.654702593118373 H 0.0 **** 0.06
35296 C 14.831365982838406 23.43978449751372 24.248952939332327 C 0.0 **** -0.24
35297 H 15.078535285612361 24.111278142227686 25.07192767287438 H 0.0 **** 0.06
35298 H 13.768274273878149 23.52184546427628 24.020528341729744 H 0.0 **** 0.06
35299 H 15.064044232363244 22.41416021992262 24.53567303411313 H 0.0 **** 0.06
35300 H 15.415064498998163 23.712770551160258 23.36967118610127 H 0.0 **** 0.06
35301 C 35.11628213351128 20.98747879825595 101.86046189318142 C 0.0 **** -0.24
35302 H 34.69787776409413 21.62558195389542 101.08172194498411 H 0.0 **** 0.06
35303 H 34.312039416255686 20.434192114160595 102.34682523274455 H 0.0 **** 0.06
35304 H 35.630448130659886 21.604406321959488 102.59729191340807 H 0.0 **** 0.06
35305 H 35.82367066664352 20.287678748170663 101.41617476184223 H 0.0 **** 0.06
35306 C 60.14269468193555 10.62525630280814 36.206545512510274 C 0.0 **** -0.24
35307 H 61.08881731351522 10.196775074175633 35.87815328019212 H 0.0 **** 0.06
35308 H 60.32217784466587 11.313529958477005 37.033415501524814 H 0.0 **** 0.06
35309 H 59.47733760138874 9.827704095262874 36.535440793769794 H 0.0 **** 0.06
35310 H 59.681525011304245 11.164935455266544 35.37848829537171 H 0.0 **** 0.06
35311 C 13.093787672871315 93.75573135729498 92.56487647329315 C 0.0 **** -0.24
35312 H 14.0041070977843 93.43927884938272 92.05614662074262 H 0.0 **** 0.06
35313 H 12.474173677146268 92.88388955826218 92.77477908131053 H 0.0 **** 0.06
35314 H 12.544737528021642 94.4485333095143 91.92759309991322 H 0.0 **** 0.06
35315 H 13.354520149516247 94.25092687648643 93.50052797486342 H 0.0 **** 0.06
35316 C 80.33597371731909 79.58398647504225 55.86052563428902 C 0.0 **** -0.24
35317 H 81.0642404045858 79.30529677683174 56.621906221067945 H 0.0 **** 0.06
35318 H 79.53916721265165 80.17060489511331 56.31835090821326 H 0.0 **** 0.06
35319 H 79.91378814979144 78.68219759694412 55.41525495312217 H 0.0 **** 0.06
35320 H 80.8259102759276 80.17508772040932 55.08746602105052 H 0.0 **** 0.06
35321 C 96.29938349019397 88.18042212968861 39.4857415307298 C 0.0 **** -0.24
35322 H 96.3748597710233 87.28911173078448 40.10865873096475 H 0.0 **** 0.06
35323 H 97.11124191382885 88.18502056331943 38.758917307629986 H 0.0 **** 0.06
35324 H 96.36893196225509 89.06873086677109 40.11383734037577 H 0.0 **** 0.06
35325 H 95.34260189476805 88.17796599337314 38.96384435377405 H 0.0 **** 0.06
35326 C 41.368468704820884 87.25474457532283 59.38379428528914 C 0.0 **** -0.24
35327 H 41.0748639594631 86.74390996569008 58.467219713981386 H 0.0 **** 0.06
35328 H 40.535076340247116 87.24762743378062 60.08661166344311 H 0.0 **** 0.06
35329 H 41.64166308298371 88.28466938715238 59.154708202457485 H 0.0 **** 0.06
35330 H 42.22290664834685 86.74243314317494 59.82733186742695 H 0.0 **** 0.06
35331 C 26.874417983140404 27.671446911836654 106.79239974764994 C 0.0 **** -0.24
35332 H 26.406052102827744 28.24314684137596 105.99192097356763 H 0.0 **** 0.06
35333 H 27.948389602155203 27.606062079192412 106.61228972871945 H 0.0 **** 0.06
35334 H 26.448272778380783 26.667860534676493 106.81929678326486 H 0.0 **** 0.06
35335 H 26.694985500162062 28.16746529686003 107.74674691881899 H 0.0 **** 0.06
35336 C 85.87808072200511 69.91026685140105 49.79363991021597 C 0.0 **** -0.24
35337 H 84.84878410069888 69.61671280607754 49.58604354522009 H 0.0 **** 0.06
35338 H 86.54638752341805 69.07962585136329 49.565509887779626 H 0.0 **** 0.06
35339 H 85.97449998403192 70.17549708585884 50.846642283567405 H 0.0 **** 0.06
35340 H 86.14171676965793 70.7698957378712 49.17719205161583 H 0.0 **** 0.06
35341 C 94.38856018031956 47.929933404163265 30.723147170146717 C 0.0 **** -0.24
35342 H 93.48616237775701 47.717840153527966 30.14930623774626 H 0.0 **** 0.06
35343 H 94.134736515821 48.55291327525645 31.581140986301364 H 0.0 **** 0.06
35344 H 95.10604186537194 48.45390786093418 30.092112699255154 H 0.0 **** 0.06
35345 H 94.82573077612659 46.99304856919878 31.071229782476223 H 0.0 **** 0.06
35346 C 34.593200143180354 93.66727669417682 57.89547104455784 C 0.0 **** -0.24
35347 H 33.99318688062232 92.84775419872895 58.29027563658923 H 0.0 **** 0.06
35348 H 34.284065737955586 94.60194055222581 58.364329411556525 H 0.0 **** 0.06
35349 H 34.449762905691614 93.73651967573932 56.81660313714724 H 0.0 **** 0.06
35350 H 35.64549063917477 93.4827213250611 58.1116162715785 H 0.0 **** 0.06
35351 C 79.44157554632224 81.83797330544382 58.64456925617368 C 0.0 **** -0.24
35352 H 79.5921115374888 82.50796289226255 57.79800348398226 H 0.0 **** 0.06
35353 H 78.54719804205155 82.13842702323086 59.19063993739907 H 0.0 **** 0.06
35354 H 80.30671469613814 81.88970719152812 59.30579206363163 H 0.0 **** 0.06
35355 H 79.32150844881525 80.8171289867364 58.28253407001463 H 0.0 **** 0.06
35356 C 110.62275158150024 96.20670266703371 60.563855350187055 C 0.0 **** -0.24
35357 H 111.1800413999775 96.69736787450148 59.76532639771324 H 0.0 **** 0.06
35358 H 109.56741554029735 96.16064789630371 60.29340096368989 H 0.0 **** 0.06
35359 H 110.73766695896443 96.77293498319938 61.4881995277986 H 0.0 **** 0.06
35360 H 111.00507957830983 95.19606772929387 60.70618961482717 H 0.0 **** 0.06
35361 C 45.55396175074828 95.67330891722168 36.919060007944985 C 0.0 **** -0.24
35362 H 46.542081586002276 95.5925721859804 37.371548107427444 H 0.0 **** 0.06
35363 H 44.84731093009719 95.0584052556677 37.47725252279553 H 0.0 **** 0.06
35364 H 45.597755563339454 95.32901776772025 35.8854186404192 H 0.0 **** 0.06
35365 H 45.22770506265613 96.71335019569283 36.942004988855246 H 0.0 **** 0.06
35366 C 31.744570869722054 109.7518184828204 94.98647898828935 C 0.0 **** -0.24
35367 H 31.605492501580272 108.70053471143991 95.23820972059606 H 0.0 **** 0.06
35368 H 31.302634137735083 109.95280903707936 94.00990921673062 H 0.0 **** 0.06
35369 H 32.80929685315462 109.98078568903902 94.9578211893902 H 0.0 **** 0.06
35370 H 31.258964287519547 110.37222256312302 95.73922975604115 H 0.0 **** 0.06
35371 C 58.93706962577987 83.99942747546956 32.751891547898026 C 0.0 **** -0.24
35372 H 59.119451392773286 84.93714448811039 32.2268797074139 H 0.0 **** 0.06
35373 H 58.580532858289445 83.2505845867758 32.04414821337258 H 0.0 **** 0.06
35374 H 58.18451694968886 84.15614505769952 33.52441842792257 H 0.0 **** 0.06
35375 H 59.86305061592215 83.65513156100582 33.21122933657932 H 0.0 **** 0.06
35376 C 18.966159408436482 52.757866495580345 21.601186682222902 C 0.0 **** -0.24
35377 H 19.961463993406458 52.44782552222125 21.918412270524783 H 0.0 **** 0.06
35378 H 19.032796353778526 53.707752099423146 21.069364661170027 H 0.0 **** 0.06
35379 H 18.32629319562624 52.875292216170635 22.476124504795507 H 0.0 **** 0.06
35380 H 18.542378808600922 52.00081608767698 20.94105454821559 H 0.0 **** 0.06
35381 C 68.0247723026203 30.092453034847715 96.41128873241256 C 0.0 **** -0.24
35382 H 67.69335167895036 30.41937101736348 95.42508449616373 H 0.0 **** 0.06
35383 H 68.85613973866447 30.716670657936433 96.73932576301476 H 0.0 **** 0.06
35384 H 68.34908457575875 29.0532384121081 96.35857971827292 H 0.0 **** 0.06
35385 H 67.20151974798648 30.18061833399444 97.11952301101392 H 0.0 **** 0.06
35386 C 46.961904990018944 60.80900418299609 73.61458187749898 C 0.0 **** -0.24
35387 H 47.31324598204259 59.776859855113685 73.59966980580845 H 0.0 **** 0.06
35388 H 47.553213278387815 61.382254257303714 74.3294970162784 H 0.0 **** 0.06
35389 H 45.91308994791454 60.83160518297262 73.91069830625383 H 0.0 **** 0.06
35390 H 47.06947372819161 61.24380787069748 72.6214311362923 H 0.0 **** 0.06
35391 C 76.4692530468121 55.07917599145512 35.593288478152374 C 0.0 **** -0.24
35392 H 76.14861216861124 55.59853930853633 36.496597907255506 H 0.0 **** 0.06
35393 H 75.5939226764022 54.79720828405704 35.00720593987609 H 0.0 **** 0.06
35394 H 77.02672043397104 54.184160163071944 35.867533728331864 H 0.0 **** 0.06
35395 H 77.10575324578588 55.7379123893305 35.00267644317847 H 0.0 **** 0.06
35396 C 45.67805566542813 47.77208680611444 18.095098028045896 C 0.0 **** -0.24
35397 H 46.32218163125458 46.98976720549697 17.693934094019653 H 0.0 **** 0.06
35398 H 46.04473137524252 48.74569206551057 17.77072875097707 H 0.0 **** 0.06
35399 H 45.68444719399059 47.72480757679644 19.183950425397995 H 0.0 **** 0.06
35400 H 44.66091374828085 47.62669945931362 17.73147794730265 H 0.0 **** 0.06
35401 C 65.25169676843669 36.46933157238959 14.357864255144008 C 0.0 **** -0.24
35402 H 66.26118253335312 36.75366591233609 14.656841286508168 H 0.0 **** 0.06
35403 H 65.0624452751787 35.43773864761653 14.652074323078352 H 0.0 **** 0.06
35404 H 65.15447551437592 36.562895086373686 13.275420853274909 H 0.0 **** 0.06
35405 H 64.53062056683942 37.124762149462555 14.84600827891667 H 0.0 **** 0.06
35406 C 84.62027746492133 66.40237957755033 26.215893846858904 C 0.0 **** -0.24
35407 H 85.56670234973252 66.61407565485212 25.718478092413932 H 0.0 **** 0.06
35408 H 84.81338518409889 66.03103622772804 27.222649174289188 H 0.0 **** 0.06
35409 H 84.07187762043692 65.64872067934357 25.649295495526133 H 0.0 **** 0.06
35410 H 84.0282381246378 67.31550390171583 26.27277171393561 H 0.0 **** 0.06
35411 C 70.9384348053255 94.00930788328138 105.07915009892622 C 0.0 **** -0.24
35412 H 71.08454173008167 94.87299043096155 104.43170135669544 H 0.0 **** 0.06
35413 H 70.43782667219335 94.32301984091308 105.99519651674157 H 0.0 **** 0.06
35414 H 71.9061368091949 93.57194914083317 105.32587042428264 H 0.0 **** 0.06
35415 H 70.32559318716973 93.26913320178988 104.56475499751019 H 0.0 **** 0.06
35416 C 51.70645456212489 62.809652509012096 92.92685977758673 C 0.0 **** -0.24
35417 H 52.273239199517974 62.66780824796632 93.84654671685732 H 0.0 **** 0.06
35418 H 52.15349919471143 62.21555717409922 92.12882303680487 H 0.0 **** 0.06
35419 H 51.72282531542493 63.8629671754768 92.64844659371029 H 0.0 **** 0.06
35420 H 50.67531928714206 62.491487653316995 93.0823973265466 H 0.0 **** 0.06
35421 C 81.45155964037158 82.53816198986135 75.9489735306854 C 0.0 **** -0.24
35422 H 81.44969722044357 83.01599753920027 76.92877987045004 H 0.0 **** 0.06
35423 H 80.93294236624365 83.17600813840943 75.2329643376178 H 0.0 **** 0.06
35424 H 80.94417258017364 81.57573532378225 76.01314518626847 H 0.0 **** 0.06
35425 H 82.480434141986 82.38587344050995 75.62122935581725 H 0.0 **** 0.06
35426 C 32.64648338967803 6.038801763267088 66.67240151395319 C 0.0 **** -0.24
35427 H 33.04859418327091 7.045929914588555 66.55955843702033 H 0.0 **** 0.06
35428 H 31.7209023067198 6.080150947294371 67.24779938111169 H 0.0 **** 0.06
35429 H 33.3725127614579 5.415118819360643 67.19380218646666 H 0.0 **** 0.06
35430 H 32.44450732080894 5.6156041064475914 65.68811335828889 H 0.0 **** 0.06
35431 C 35.61412075755112 90.4689808164548 79.68749948556419 C 0.0 **** -0.24
35432 H 36.43517866347008 90.11589680191332 79.06493925613188 H 0.0 **** 0.06
35433 H 35.81401380526313 91.49180212453734 80.00706024643875 H 0.0 **** 0.06
35434 H 35.51957408019422 89.82616635956668 80.56298121438743 H 0.0 **** 0.06
35435 H 34.685800175672625 90.44230189011591 79.1155353774954 H 0.0 **** 0.06
35436 C 5.844468120233245 1.507449566596705 27.059646621501543 C 0.0 **** -0.24
35437 H 6.265263373515467 1.9335398991118353 26.1496438489972 H 0.0 **** 0.06
35438 H 5.150066240348764 2.219613359727788 27.50717602918502 H 0.0 **** 0.06
35439 H 6.647140575072967 1.2908089672071128 27.764234792357428 H 0.0 **** 0.06
35440 H 5.314810301888713 0.5856457810259599 26.81880203185031 H 0.0 **** 0.06
35441 C 71.02442581357195 110.59696127043406 9.84536800550957 C 0.0 **** -0.24
35442 H 70.70778587564287 110.80456727793621 10.867078132902364 H 0.0 **** 0.06
35443 H 71.65101608522939 111.41391594434413 9.486494127753957 H 0.0 **** 0.06
35444 H 70.14697431865916 110.50411552627041 9.205674128789326 H 0.0 **** 0.06
35445 H 71.5911091137422 109.6663223820731 9.821809312154258 H 0.0 **** 0.06
35446 C 32.42325375056615 10.972830662762892 2.891803512936235 C 0.0 **** -0.24
35447 H 32.547964800685875 11.229157732136702 3.9441971435566074 H 0.0 **** 0.06
35448 H 31.423549258491306 10.571243087595137 2.7310148287671723 H 0.0 **** 0.06
35449 H 33.16491298324459 10.225720030357092 2.60942785784664 H 0.0 **** 0.06
35450 H 32.55930358786736 11.86680184855577 2.2823178723891147 H 0.0 **** 0.06
35451 C 75.58227534942216 78.4522556707789 29.153213156348954 C 0.0 **** -0.24
35452 H 76.44083448642758 78.72752009805248 29.76586268236096 H 0.0 **** 0.06
35453 H 74.92730896658674 77.79205015069766 29.723122375552435 H 0.0 **** 0.06
35454 H 75.92623237931309 77.93749414158455 28.256196516316635 H 0.0 **** 0.06
35455 H 75.03512118993848 79.35068342806787 28.869724950584327 H 0.0 **** 0.06
35456 C 75.81700453047733 102.17091834857585 10.213908237098082 C 0.0 **** -0.24
35457 H 75.97319744291508 102.96292736751774 10.94626553769757 H 0.0 **** 0.06
35458 H 74.91029659883554 101.61915239479951 10.463118628742109 H 0.0 **** 0.06
35459 H 76.67017083125336 101.49142519341562 10.225788037637912 H 0.0 **** 0.06
35460 H 75.71628537328081 102.60937490271398 9.221259147489235 H 0.0 **** 0.06
35461 C 74.86930619220753 93.46263466313016 96.98362232758946 C 0.0 **** -0.24
35462 H 75.16179407866672 94.16093594128624 96.19935202942301 H 0.0 **** 0.06
35463 H 74.29867062652889 93.9918756937116 97.74611145187268 H 0.0 **** 0.06
35464 H 75.76262586446468 93.02756470936556 97.43342662620968 H 0.0 **** 0.06
35465 H 74.25678270091399 92.67025115000585 96.55387350055697 H 0.0 **** 0.06
35466 C 105.63534905459231 38.697055446943935 38.58019911274255 C 0.0 **** -0.24
35467 H 104.9425100068396 38.56223318667741 37.750001118222485 H 0.0 **** 0.06
35468 H 105.42460814800307 37.958176788345106 39.35271207770347 H 0.0 **** 0.06
35469 H 105.51578340669776 39.69952362893767 38.99213524044782 H 0.0 **** 0.06
35470 H 106.65727109402448 38.570121597833925 38.22417547705916 H 0.0 **** 0.06
35471 C 16.486522888011464 27.472526189609823 105.43302074637407 C 0.0 **** -0.24
35472 H 17.06067098645007 26.554609915268514 105.5619565569886 H 0.0 **** 0.06
35473 H 17.158230320037095 28.284078364274876 105.15210980617377 H 0.0 **** 0.06
35474 H 15.98530413387073 27.72196995572355 106.36865974622987 H 0.0 **** 0.06
35475 H 15.74248691323071 27.32837193121253 104.65005285755558 H 0.0 **** 0.06
35476 C 53.41911486033831 35.10357014275468 5.364274738486301 C 0.0 **** -0.24
35477 H 53.52822421931501 35.49281837101245 4.351837227440981 H 0.0 **** 0.06
35478 H 52.439101666247836 34.63767101899356 5.470359185077214 H 0.0 **** 0.06
35479 H 53.512643846293145 35.92066669166854 6.078811814337115 H 0.0 **** 0.06
35480 H 54.19622956226715 34.36351965659276 5.553905225396818 H 0.0 **** 0.06
35481 C 107.8662435209659 27.783609376675315 29.215714543841074 C 0.0 **** -0.24
35482 H 107.15336646450169 27.505848910129146 28.438856001283852 H 0.0 **** 0.06
35483 H 107.44599223502308 28.583385467913274 29.82547580063013 H 0.0 **** 0.06
35484 H 108.79174590593718 28.126310965640528 28.753369790455196 H 0.0 **** 0.06
35485 H 108.07336849637088 26.916874607906607 29.8438609016917 H 0.0 **** 0.06
35486 C 1.1019860237177 42.349826702331626 48.87775719327442 C 0.0 **** -0.24
35487 H 1.3233893312569478 41.43031075723974 49.419605636323894 H 0.0 **** 0.06
35488 H 0.29870113160217215 42.16614132686993 48.16419864609314 H 0.0 **** 0.06
35489 H 1.993593384712625 42.681889892622905 48.34550809352477 H 0.0 **** 0.06
35490 H 0.7908589532345331 43.12079227803301 49.58371812179549 H 0.0 **** 0.06
35491 C 38.27167493439343 40.8403802327247 37.18670494996866 C 0.0 **** -0.24
35492 H 38.2215328155191 39.81190941998338 37.54682490229166 H 0.0 **** 0.06
35493 H 38.98208463073108 40.90245403493361 36.362881186122365 H 0.0 **** 0.06
35494 H 38.597401903292045 41.493123924979585 37.99774467711646 H 0.0 **** 0.06
35495 H 37.285405549688804 41.15313315112286 36.84254933259979 H 0.0 **** 0.06
35496 C 10.358529302790316 48.70625347789917 47.01762871503249 C 0.0 **** -0.24
35497 H 9.894628193418882 47.8817955200314 46.476224461481465 H 0.0 **** 0.06
35498 H 11.35162397384839 48.896823568314005 46.60878298924389 H 0.0 **** 0.06
35499 H 10.443549698942121 48.44628559244359 48.073044269818254 H 0.0 **** 0.06
35500 H 9.745044949380116 49.6012362850729 46.912018699919095 H 0.0 **** 0.06
35501 C 16.605882805693568 18.582725630383123 82.01325646138977 C 0.0 **** -0.24
35502 H 16.33158747787769 18.992003875245103 82.98535836161034 H 0.0 **** 0.06
35503 H 15.783608789023674 18.730544519831824 81.31260477246207 H 0.0 **** 0.06
35504 H 16.81038734311744 17.51700286070593 82.11346913712765 H 0.0 **** 0.06
35505 H 17.49602061238562 19.090664320924986 81.64294082268316 H 0.0 **** 0.06
35506 C 41.63324699984355 100.31970047651957 47.37463600806922 C 0.0 **** -0.24
35507 H 41.186056567238126 100.35614650196591 48.367886793894115 H 0.0 **** 0.06
35508 H 40.95954853854958 100.78606956083682 46.65567286503824 H 0.0 **** 0.06
35509 H 41.80351220646287 99.28046976139997 47.09108517176287 H 0.0 **** 0.06
35510 H 42.58246708310796 100.85437536521572 47.383891944523214 H 0.0 **** 0.06
35511 C 85.2797405282459 69.53877953886007 9.437509253710061 C 0.0 **** -0.24
35512 H 85.32749486392413 70.6104316861024 9.243640894673774 H 0.0 **** 0.06
35513 H 85.14258607777879 69.00579137316754 8.496521466349975 H 0.0 **** 0.06
35514 H 84.44123874617438 69.32723707333412 10.100886422884571 H 0.0 **** 0.06
35515 H 86.20699792381788 69.21322449498615 9.908626383000012 H 0.0 **** 0.06
35516 C 25.15286956446694 20.58509320629014 95.8289895226185 C 0.0 **** -0.24
35517 H 25.6545713310406 19.61758346478811 95.84642421087034 H 0.0 **** 0.06
35518 H 24.959109330687838 20.91258827430252 96.85100945650697 H 0.0 **** 0.06
35519 H 24.208438941753315 20.495024455512322 95.29087872795772 H 0.0 **** 0.06
35520 H 25.789358654386064 21.315176630557573 95.32764569513903 H 0.0 **** 0.06
35521 C 15.80550766683885 43.563966692128574 14.357510556178681 C 0.0 **** -0.24
35522 H 15.517900891980503 43.88506930274594 15.35891967115441 H 0.0 **** 0.06
35523 H 16.89179139171145 43.50443644941744 14.294032015853134 H 0.0 **** 0.06
35524 H 15.436578695825233 44.28345337108159 13.625581505869548 H 0.0 **** 0.06
35525 H 15.374394520702424 42.58412428903919 14.152796023685369 H 0.0 **** 0.06
35526 C 26.46600789247168 66.42280771185581 10.76306472025746 C 0.0 **** -0.24
35527 H 26.370321625207225 67.00747506308105 9.848053263908255 H 0.0 **** 0.06
35528 H 25.667961877408572 66.695742185289 11.454291973983018 H 0.0 **** 0.06
35529 H 27.432412195682332 66.62646505720555 11.22425463836862 H 0.0 **** 0.06
35530 H 26.392593171260046 65.36128442526451 10.524484807508927 H 0.0 **** 0.06
35531 C 35.87540910069001 20.385325743566455 39.85588559883172 C 0.0 **** -0.24
35532 H 35.6754934741501 21.454117771470408 39.78552203256692 H 0.0 **** 0.06
35533 H 36.904281920757825 20.229411910746563 40.18178800574606 H 0.0 **** 0.06
35534 H 35.72894189892972 19.92346879719878 38.879342580487105 H 0.0 **** 0.06
35535 H 35.19366065400469 19.935506399472217 40.57696485465567 H 0.0 **** 0.06
35536 C 9.476505360730101 56.81015964713609 65.01166276252303 C 0.0 **** -0.24
35537 H 9.648406760813728 57.13551495016773 66.03815709626748 H 0.0 **** 0.06
35538 H 9.368599173164753 57.68370892814971 64.36756904664513 H 0.0 **** 0.06
35539 H 8.566390150003457 56.21179830736685 64.96880548669763 H 0.0 **** 0.06
35540 H 10.322597875916301 56.21110634429314 64.67490865370671 H 0.0 **** 0.06
35541 C 1.8918092658749117 14.332392236444264 107.4696771922218 C 0.0 **** -0.24
35542 H 1.836941333771108 14.002090001764088 108.50724873377581 H 0.0 **** 0.06
35543 H 0.9468208859305491 14.796661626536377 107.18548062639968 H 0.0 **** 0.06
35544 H 2.0838609243807014 13.475336017890754 106.82533221052788 H 0.0 **** 0.06
35545 H 2.6994502337596202 15.056627496133189 107.3614593195029 H 0.0 **** 0.06
35546 C 104.23125910509793 96.93686047398506 0.7124910770224346 C 0.0 **** -0.24
35547 H 103.19742857416787 96.92598757945797 0.36539741475644405 H 0.0 **** 0.06
35548 H 104.55441782821163 97.9688383913857 0.8554695280322449 H 0.0 **** 0.06
35549 H 104.8677220722501 96.45507132625613 -0.028437221624528775 H 0.0 **** 0.06
35550 H 104.30219135702373 96.40021189925244 1.6586071679352017 H 0.0 **** 0.06
35551 C 3.7568990224463725 1.2277599621206718 94.62605754493225 C 0.0 **** -0.24
35552 H 4.2751949279595145 2.0865199755998844 95.05107784673515 H 0.0 **** 0.06
35553 H 3.384900911344099 0.5920393611441739 95.43038989138851 H 0.0 **** 0.06
35554 H 4.447323181264858 0.6589935513778187 94.00301661875088 H 0.0 **** 0.06
35555 H 2.91960542170877 1.5728050657106394 94.0186465779467 H 0.0 **** 0.06
35556 C 82.26992971611878 99.31160720287156 14.185709237083184 C 0.0 **** -0.24
35557 H 82.64027863453975 98.69420857794496 13.368417209708738 H 0.0 **** 0.06
35558 H 81.67060601319122 98.6994669171526 14.860898237342468 H 0.0 **** 0.06
35559 H 81.65613787241205 100.11694222187424 13.78257179453417 H 0.0 **** 0.06
35560 H 83.11352026144948 99.7349614232509 14.731723864279012 H 0.0 **** 0.06
35561 C 108.68684274541624 52.7487400457897 15.028670468553713 C 0.0 **** -0.24
35562 H 108.55407893786614 51.67281571308638 14.912148498973593 H 0.0 **** 0.06
35563 H 108.13733457488172 53.08960648272762 15.907210546724016 H 0.0 **** 0.06
35564 H 108.3080754681131 53.2587842998081 14.143030059784493 H 0.0 **** 0.06
35565 H 109.7455019537488 52.97317934822166 15.15236900540279 H 0.0 **** 0.06
35566 C 107.19347770826612 35.330858061017494 106.21598084196165 C 0.0 **** -0.24
35567 H 107.24631228497293 36.40697200153858 106.0480997195467 H 0.0 **** 0.06
35568 H 107.71059019012066 35.08291630298899 107.14275388955427 H 0.0 **** 0.06
35569 H 107.66665774896876 34.80972995518127 105.38359397865865 H 0.0 **** 0.06
35570 H 106.1497927465112 35.02704967688268 106.2890071262731 H 0.0 **** 0.06
35571 C 90.64933894678597 105.69810696878281 65.82085410486076 C 0.0 **** -0.24
35572 H 91.54318942125295 105.67624505711927 66.44338929447076 H 0.0 **** 0.06
35573 H 90.15453911028509 106.6633727057851 65.93023386524794 H 0.0 **** 0.06
35574 H 89.97075363229496 104.90426828684801 66.1316286314509 H 0.0 **** 0.06
35575 H 90.93018722615628 105.55051266575626 64.77753969832764 H 0.0 **** 0.06
35576 C 93.17398259048719 34.833032078420956 57.176332676591244 C 0.0 **** -0.24
35577 H 92.95090479546555 34.23065502498528 58.05793462882955 H 0.0 **** 0.06
35578 H 93.74300122216988 34.2370207588645 56.46305151224264 H 0.0 **** 0.06
35579 H 93.75884296392884 35.70413179416579 57.471738097178026 H 0.0 **** 0.06
35580 H 92.24164996570404 35.160174540035655 56.71554482632386 H 0.0 **** 0.06
35581 C 47.78720823150984 4.8586761601786606 94.12187675889089 C 0.0 **** -0.24
35582 H 48.2622242429697 4.3778015299256765 94.97713176334736 H 0.0 **** 0.06
35583 H 48.517352560725584 4.975430688281548 93.31966825732684 H 0.0 **** 0.06
35584 H 47.41202068144381 5.838305535550177 94.41686368826433 H 0.0 **** 0.06
35585 H 46.95931861694469 4.241517714232955 93.77245010755036 H 0.0 **** 0.06
35586 C 39.700046710706566 9.050098460984671 35.39337711006294 C 0.0 **** -0.24
35587 H 40.0236473482285 9.95824646486082 35.90123981360074 H 0.0 **** 0.06
35588 H 38.7712537229954 9.244640954665101 34.85736356415515 H 0.0 **** 0.06
35589 H 39.53803450934584 8.261273104123674 36.127676990230725 H 0.0 **** 0.06
35590 H 40.469421339190774 8.736160947937691 34.68669348856753 H 0.0 **** 0.06
35591 C 80.92012673078017 106.927614901053 44.588554409311655 C 0.0 **** -0.24
35592 H 80.3482270973769 107.3932819695093 43.78578250192882 H 0.0 **** 0.06
35593 H 81.01700087451206 105.8591875981304 44.3939078939685 H 0.0 **** 0.06
35594 H 80.40339052110679 107.07983498847088 45.535802230299396 H 0.0 **** 0.06
35595 H 81.91107067634815 107.38009811364606 44.63797933924678 H 0.0 **** 0.06
35596 C 99.56204443324913 27.49042204372813 18.401967064307513 C 0.0 **** -0.24
35597 H 98.92980233078993 27.413661007598108 19.285959341885274 H 0.0 **** 0.06
35598 H 99.0306134751483 27.08826027335411 17.539644757151052 H 0.0 **** 0.06
35599 H 100.48015067061374 26.924114480675158 18.56061903397014 H 0.0 **** 0.06
35600 H 99.80694190184465 28.537537079090725 18.221630970382762 H 0.0 **** 0.06
35601 C 31.081942266222427 84.0133409144014 62.466017990679404 C 0.0 **** -0.24
35602 H 31.95455270516908 83.36339405057606 62.40581169720724 H 0.0 **** 0.06
35603 H 30.176808749098058 83.40621864908809 62.47653447764253 H 0.0 **** 0.06
35604 H 31.06408189345541 84.67795737109805 61.60265904436619 H 0.0 **** 0.06
35605 H 31.133280944021806 84.60543736909841 63.38004692263263 H 0.0 **** 0.06
35606 C 51.729683408258666 43.07073044033996 93.32380865732883 C 0.0 **** -0.24
35607 H 52.71757743412212 42.87124729254673 93.73892020419187 H 0.0 **** 0.06
35608 H 51.51310358213058 42.34856527797514 92.53630029933291 H 0.0 **** 0.06
35609 H 51.70636441824007 44.07833740331509 92.90941013361328 H 0.0 **** 0.06
35610 H 50.980803130965 42.984650376106 94.11170035671853 H 0.0 **** 0.06
35611 C 81.66482255113236 86.58891220701659 1.7681491419937174 C 0.0 **** -0.24
35612 H 81.73988484988801 86.17722003605475 0.7618679086571092 H 0.0 **** 0.06
35613 H 80.63262356436013 86.87618592648688 1.9668543520938329 H 0.0 **** 0.06
35614 H 82.30952055031729 87.46450512746789 1.8513015027904771 H 0.0 **** 0.06
35615 H 81.97959819669357 85.83700368901675 2.4925624644330924 H 0.0 **** 0.06
35616 C 17.07405320567949 24.255536231466635 93.14287453934571 C 0.0 **** -0.24
35617 H 16.54517095369249 24.930090779028717 93.81638509639853 H 0.0 **** 0.06
35618 H 18.14560051223657 24.44367540121118 93.20942340256028 H 0.0 **** 0.06
35619 H 16.736910954194286 24.42590866281597 92.1204704785086 H 0.0 **** 0.06
35620 H 16.86630591616398 23.223511268002653 93.42694198170693 H 0.0 **** 0.06
35621 C 48.24572853635063 101.06171371444091 3.3454485065228425 C 0.0 **** -0.24
35622 H 47.73459766715656 100.1727557736817 3.715054710834295 H 0.0 **** 0.06
35623 H 47.95352706216543 101.92474166304369 3.9440759473280593 H 0.0 **** 0.06
35624 H 47.97231333600929 101.23124811027233 2.30415943404671 H 0.0 **** 0.06
35625 H 49.32449049860388 100.91671831311714 3.418590796890385 H 0.0 **** 0.06
35626 C 105.27330255182648 101.19903114854401 82.5209797219419 C 0.0 **** -0.24
35627 H 105.7296095600027 100.2688144519559 82.85951560575609 H 0.0 **** 0.06
35628 H 104.45867011840332 100.9745550694135 81.83276667536103 H 0.0 **** 0.06
35629 H 106.0223033664796 101.8070257388328 82.0143377856948 H 0.0 **** 0.06
35630 H 104.88373035471281 101.74514131442902 83.38052957986196 H 0.0 **** 0.06
35631 C 36.64942442691972 29.090610951084543 48.03174155441772 C 0.0 **** -0.24
35632 H 37.33904014269319 29.00961952191887 47.19166818132123 H 0.0 **** 0.06
35633 H 35.62724094022491 29.15356822678688 47.65774815544701 H 0.0 **** 0.06
35634 H 36.8812271187856 29.9857682344213 48.60843008134612 H 0.0 **** 0.06
35635 H 36.749748897490235 28.211587382084637 48.670212706998626 H 0.0 **** 0.06
35636 C 69.55932498821062 104.16905160823882 10.093446251967261 C 0.0 **** -0.24
35637 H 69.80414157324952 103.67470339470722 9.153213074568134 H 0.0 **** 0.06
35638 H 70.1045658776518 103.69094968309518 10.907839709626476 H 0.0 **** 0.06
35639 H 68.48832485762944 104.08987366863536 10.277194052592153 H 0.0 **** 0.06
35640 H 69.8413914518029 105.22062896366364 10.034681092049192 H 0.0 **** 0.06
35641 C 94.11761926034791 53.09272385654208 78.49805395849546 C 0.0 **** -0.24
35642 H 94.4162318914369 52.26735939911816 79.14349387418201 H 0.0 **** 0.06
35643 H 94.58200611602825 52.974167710495294 77.51838305006294 H 0.0 **** 0.06
35644 H 94.43837295497445 54.035368753746525 78.94145941103744 H 0.0 **** 0.06
35645 H 93.03308542109329 53.09338563461853 78.38876238438223 H 0.0 **** 0.06
35646 C 105.95997473265389 38.72307707626116 83.38950500523949 C 0.0 **** -0.24
35647 H 106.66881219237209 37.98789933776432 83.77138314515919 H 0.0 **** 0.06
35648 H 105.90586732115614 38.64371670716335 82.30339815534356 H 0.0 **** 0.06
35649 H 106.29072335762444 39.72361106610535 83.66554438927939 H 0.0 **** 0.06
35650 H 104.97557826510608 38.533642026889225 83.81765415580499 H 0.0 **** 0.06
35651 C 73.9430082357249 15.777353619026911 41.9201649381331 C 0.0 **** -0.24
35652 H 73.88609014298639 15.583942377691699 40.84837287866185 H 0.0 **** 0.06
35653 H 74.79396099731657 15.241546400059306 42.3407618400351 H 0.0 **** 0.06
35654 H 73.02513872210956 15.437778821791937 42.399105642655 H 0.0 **** 0.06
35655 H 74.06812285584361 16.846935680790253 42.08914210319563 H 0.0 **** 0.06
35656 C 27.666701570293412 18.12721135239309 56.13741942049963 C 0.0 **** -0.24
35657 H 27.196586180258663 18.325797066786322 57.100482220861565 H 0.0 **** 0.06
35658 H 28.69293190462679 17.79402123372421 56.295509364846936 H 0.0 **** 0.06
35659 H 27.668131840900372 19.038444841064404 55.53926792062312 H 0.0 **** 0.06
35660 H 27.108662915323322 17.350512328960633 55.615285168003574 H 0.0 **** 0.06
35661 C 86.85236936952742 41.972387832857976 40.841288277514195 C 0.0 **** -0.24
35662 H 86.46620997380576 40.96602822204568 40.67754757967276 H 0.0 **** 0.06
35663 H 86.17153567734918 42.52105056927718 41.49250824396762 H 0.0 **** 0.06
35664 H 86.93563899648339 42.488454195848874 39.88537543841073 H 0.0 **** 0.06
35665 H 87.8340298578761 41.91317023091534 41.309563420694474 H 0.0 **** 0.06
35666 C 25.654926306022134 37.07889622506205 32.325599522704806 C 0.0 **** -0.24
35667 H 25.094620375114573 37.997599222503055 32.15246145747494 H 0.0 **** 0.06
35668 H 25.095655208447596 36.436606278732626 33.00609141133157 H 0.0 **** 0.06
35669 H 26.622674561691156 37.320849587498074 32.76593082915616 H 0.0 **** 0.06
35670 H 25.806293085443457 36.56136540898504 31.378211696153926 H 0.0 **** 0.06
35671 C 7.620665172388584 42.21461923438966 67.43513115808074 C 0.0 **** -0.24
35672 H 8.550596994034947 41.77282796102031 67.07537975285652 H 0.0 **** 0.06
35673 H 7.319059990125027 41.72222689074127 68.3605710069248 H 0.0 **** 0.06
35674 H 6.842064473727618 42.084762559201266 66.6844542288494 H 0.0 **** 0.06
35675 H 7.77224866502533 43.27770546522754 67.62301372458899 H 0.0 **** 0.06
35676 C 32.88197660566317 31.18099331748101 83.8953508534151 C 0.0 **** -0.24
35677 H 32.738064596393656 30.254660122680633 83.34025643007823 H 0.0 **** 0.06
35678 H 33.92191188666042 31.49796532121863 83.80981051294197 H 0.0 **** 0.06
35679 H 32.63677900848623 31.017911727975672 84.94496091442846 H 0.0 **** 0.06
35680 H 32.23256080246324 31.954419610082567 83.48616314696847 H 0.0 **** 0.06
35681 C 34.470690187056235 98.0289241103095 11.782535473057294 C 0.0 **** -0.24
35682 H 33.603046936833465 97.39262980704086 11.959358898957781 H 0.0 **** 0.06
35683 H 35.37419889912675 97.41868380496749 11.783270227784843 H 0.0 **** 0.06
35684 H 34.53732191125417 98.77859065449229 12.571171023793912 H 0.0 **** 0.06
35685 H 34.365774965388226 98.52423372518945 10.81719308840955 H 0.0 **** 0.06
35686 C 46.81396769403031 47.10686073241283 42.70787819750578 C 0.0 **** -0.24
35687 H 46.427203238555336 46.461327857322146 41.91957034130368 H 0.0 **** 0.06
35688 H 47.56489948612358 46.56582877348495 43.28396032189758 H 0.0 **** 0.06
35689 H 45.99685349104729 47.405481529843485 43.36549190699216 H 0.0 **** 0.06
35690 H 47.264229659019094 47.9935668659341 42.26299948704394 H 0.0 **** 0.06
35691 C 36.69813968512949 74.70729126570974 87.31516620947339 C 0.0 **** -0.24
35692 H 35.88201500058324 74.82616047132139 88.02726262232503 H 0.0 **** 0.06
35693 H 36.91162605510067 73.64729340834579 87.18064185448641 H 0.0 **** 0.06
35694 H 37.586946864134916 75.21300850093277 87.69372222263468 H 0.0 **** 0.06
35695 H 36.41157621242263 75.14511714893031 86.35891592318752 H 0.0 **** 0.06
35696 C 43.44769631889574 42.0138792684904 40.938043231959426 C 0.0 **** -0.24
35697 H 42.97425830656607 42.871233270407686 40.45819183439002 H 0.0 **** 0.06
35698 H 42.752146375879704 41.56575320211954 41.64898003259091 H 0.0 **** 0.06
35699 H 44.34435486944699 42.341319158832164 41.463154873483234 H 0.0 **** 0.06
35700 H 43.71795234186317 41.277688844039574 40.181158127017056 H 0.0 **** 0.06
35701 C 47.551044672036674 28.918393035863204 78.88759374491346 C 0.0 **** -0.24
35702 H 47.3722146224276 29.350206471639297 79.8721396733973 H 0.0 **** 0.06
35703 H 47.08862257415758 27.933029648748942 78.8341755205749 H 0.0 **** 0.06
35704 H 48.62502262977383 28.825450607969543 78.72129923347077 H 0.0 **** 0.06
35705 H 47.12047668461257 29.565190372207383 78.1238790795826 H 0.0 **** 0.06
35706 C 85.56136678062595 108.63753724890249 56.20407816221305 C 0.0 **** -0.24
35707 H 84.6189105742789 108.86446830978383 56.70294923694763 H 0.0 **** 0.06
35708 H 86.36308238883501 109.21503139695812 56.66366307524237 H 0.0 **** 0.06
35709 H 85.48456440413021 108.8977462858642 55.148037244258035 H 0.0 **** 0.06
35710 H 85.77685568288874 107.57356635443868 56.30107913781998 H 0.0 **** 0.06
35711 C 78.83582290174746 56.16700243326437 5.843454598271933 C 0.0 **** -0.24
35712 H 77.83888976087968 56.59443923676358 5.950187052384251 H 0.0 **** 0.06
35713 H 79.33027171122961 56.61167831951599 4.978503977683033 H 0.0 **** 0.06
35714 H 78.75530486796765 55.08921233782576 5.701109587891153 H 0.0 **** 0.06
35715 H 79.41824087186507 56.372957344220254 6.740764772469248 H 0.0 **** 0.06
35716 C 59.44318376756473 45.13691514778549 86.09644174727072 C 0.0 **** -0.24
35717 H 59.808088308508786 46.16269561454709 86.04878863479979 H 0.0 **** 0.06
35718 H 59.65606178089433 44.63167823185296 85.15475904908914 H 0.0 **** 0.06
35719 H 58.36696987445737 45.14158349056444 86.27207103008129 H 0.0 **** 0.06
35720 H 59.94179375912495 44.61179831688807 86.91154797037962 H 0.0 **** 0.06
35721 C 0.060360317067130076 88.22993169416759 22.14287356975705 C 0.0 **** -0.24
35722 H 0.08681019457141392 87.56405723902833 23.005558539127325 H 0.0 **** 0.06
35723 H -0.9010388539465684 88.13287077676921 21.638445629612054 H 0.0 **** 0.06
35724 H 0.8617033990409517 87.96300145101645 21.454604587100942 H 0.0 **** 0.06
35725 H 0.19424661737432913 89.2586765107892 22.475045537399623 H 0.0 **** 0.06
35726 C 33.90942845362716 21.088289145785875 76.67342545252035 C 0.0 **** -0.24
35727 H 33.17027128128376 21.515188924784155 77.35172112121523 H 0.0 **** 0.06
35728 H 34.48368260835355 21.892046934717627 76.21069831347677 H 0.0 **** 0.06
35729 H 33.402563543372565 20.51172726383566 75.9002042385195 H 0.0 **** 0.06
35730 H 34.580515293725625 20.436426272432243 77.2318204096546 H 0.0 **** 0.06
35731 C 97.52655710524152 104.43744713396637 105.49223796485701 C 0.0 **** -0.24
35732 H 96.94005471019729 105.2346714240707 105.03704016609713 H 0.0 **** 0.06
35733 H 97.78421778666727 103.69765535094253 104.73490198963061 H 0.0 **** 0.06
35734 H 96.94284517537143 103.96265762876517 106.28093375199259 H 0.0 **** 0.06
35735 H 98.43911682582338 104.85600393991213 105.91796292696952 H 0.0 **** 0.06
35736 C 94.1873198788901 22.412332975130113 34.97659339524381 C 0.0 **** -0.24
35737 H 93.91687298902906 22.879411661314947 35.92316440269599 H 0.0 **** 0.06
35738 H 95.17963355891573 21.96876057704131 35.06124471137704 H 0.0 **** 0.06
35739 H 94.19115381520265 23.165058974391172 34.187970782973366 H 0.0 **** 0.06
35740 H 93.46086975728122 21.635438919340743 34.73397088575726 H 0.0 **** 0.06
35741 C 63.8311624627446 11.994718608753455 89.44721709487987 C 0.0 **** -0.24
35742 H 64.54934573773244 12.59877727096449 88.89253190457038 H 0.0 **** 0.06
35743 H 63.54903160454728 11.126658041144754 88.85062778134659 H 0.0 **** 0.06
35744 H 62.94467412869864 12.591083102257855 89.6624507887077 H 0.0 **** 0.06
35745 H 64.28090168737629 11.662238176996308 90.38255024499131 H 0.0 **** 0.06
35746 C 11.084720695267862 66.75082868303983 41.10722548656976 C 0.0 **** -0.24
35747 H 11.97532425491488 67.37805457864584 41.07325948857191 H 0.0 **** 0.06
35748 H 10.548881935520683 66.82980626257205 40.16053642907043 H 0.0 **** 0.06
35749 H 10.437825504433505 67.08286058302937 41.919559276645714 H 0.0 **** 0.06
35750 H 11.376053553287136 65.71432050311722 41.27492954936353 H 0.0 **** 0.06
35751 C 36.19013439281284 60.50837660245362 98.33064723964338 C 0.0 **** -0.24
35752 H 36.93953112143045 61.291388180162016 98.21418629210314 H 0.0 **** 0.06
35753 H 36.643722276877085 59.64055188052765 98.81065669159545 H 0.0 **** 0.06
35754 H 35.806970243764766 60.22379487925778 97.35045734315264 H 0.0 **** 0.06
35755 H 35.3712746426779 60.879166477228495 98.9476507572077 H 0.0 **** 0.06
35756 C 36.16058234180802 28.56692861696979 41.13062293615482 C 0.0 **** -0.24
35757 H 37.089572542764614 29.03877946851162 41.451729999386735 H 0.0 **** 0.06
35758 H 36.372733475047355 27.84607911494618 40.34140079139689 H 0.0 **** 0.06
35759 H 35.47827471561699 29.329382396393925 40.75343025048918 H 0.0 **** 0.06
35760 H 35.70152432144545 28.055853958737657 41.97744181068279 H 0.0 **** 0.06
35761 C 97.27982440649343 99.36051904265969 76.30435899519017 C 0.0 **** -0.24
35762 H 96.22824283973658 99.45623058573514 76.03699377938824 H 0.0 **** 0.06
35763 H 97.38135324549431 99.37255382386076 77.39016185803087 H 0.0 **** 0.06
35764 H 97.84080966487913 100.19101797279265 75.87699410779157 H 0.0 **** 0.06
35765 H 97.6691934103631 98.41904200651183 75.91449671771556 H 0.0 **** 0.06
35766 C 3.8333324154588784 61.046937079695454 51.912563469523725 C 0.0 **** -0.24
35767 H 4.083677080730963 61.02431052061888 50.852510990396134 H 0.0 **** 0.06
35768 H 4.751321609391322 61.08101925179244 52.50156865830392 H 0.0 **** 0.06
35769 H 3.2683583538475283 60.15224148626869 52.17158039828167 H 0.0 **** 0.06
35770 H 3.2324618643737697 61.931789039923615 52.125047290453196 H 0.0 **** 0.06
35771 C 106.97567675369379 16.199359943307797 68.04418945239433 C 0.0 **** -0.24
35772 H 105.94041944779102 15.862080427085857 67.98868634353104 H 0.0 **** 0.06
35773 H 107.0387251948172 17.235516534615442 67.71278771738451 H 0.0 **** 0.06
35774 H 107.59596981806632 15.573612694507233 67.40272424560601 H 0.0 **** 0.06
35775 H 107.32722146953728 16.124156784199727 69.0738100584989 H 0.0 **** 0.06
35776 C 8.504785606793007 30.100850969790606 74.57923894182898 C 0.0 **** -0.24
35777 H 8.641811951785499 29.026081071930236 74.70369875174869 H 0.0 **** 0.06
35778 H 9.09644907886117 30.631279760106786 75.32555615418184 H 0.0 **** 0.06
35779 H 7.450818061740918 30.349052400661805 74.70665253920956 H 0.0 **** 0.06
35780 H 8.830080095841936 30.39580664391994 73.58182159935656 H 0.0 **** 0.06
35781 C 82.19078943905083 4.368034062935919 59.9521466134064 C 0.0 **** -0.24
35782 H 81.76677138930097 3.7211235270759175 59.18446102679434 H 0.0 **** 0.06
35783 H 82.36697846508605 5.3600280201252986 59.53333607370678 H 0.0 **** 0.06
35784 H 83.1341973243924 3.9482372765149876 60.301517422272354 H 0.0 **** 0.06
35785 H 81.49528329534837 4.444040242637698 60.78812149905502 H 0.0 **** 0.06
35786 C 95.98835586804833 28.321399576132904 79.08280240004075 C 0.0 **** -0.24
35787 H 96.86286724783886 28.19888002045805 78.44411349542611 H 0.0 **** 0.06
35788 H 95.98948554844435 29.323815313001177 79.51132913753597 H 0.0 **** 0.06
35789 H 96.01824053664913 27.583143745550963 79.88518077000663 H 0.0 **** 0.06
35790 H 95.08402620771898 28.179048433363292 78.49233675314576 H 0.0 **** 0.06
35791 C 28.939035072874603 28.72359694458015 94.78672061782902 C 0.0 **** -0.24
35792 H 28.75781037296165 29.358438098372687 93.9199795958042 H 0.0 **** 0.06
35793 H 29.994344456654034 28.76861148200294 95.05629350472134 H 0.0 **** 0.06
35794 H 28.66855422691642 27.694957938052852 94.54633200458755 H 0.0 **** 0.06
35795 H 28.333291843519532 29.071768763563284 95.62405526743271 H 0.0 **** 0.06
35796 C 58.516502755954036 47.01794117279468 39.88838959622103 C 0.0 **** -0.24
35797 H 58.00040178705865 47.72763920637067 40.5338391675524 H 0.0 **** 0.06
35798 H 58.77005721720414 46.12468342622509 40.45993706015565 H 0.0 **** 0.06
35799 H 59.42895232741604 47.47385900390128 39.50284778119868 H 0.0 **** 0.06
35800 H 57.86689129544144 46.74502069363274 39.05616057507217 H 0.0 **** 0.06
35801 C 78.91345284760479 27.336422255907394 44.14722317636142 C 0.0 **** -0.24
35802 H 78.35458390185892 27.49974726629506 45.068143978646106 H 0.0 **** 0.06
35803 H 79.91257551849904 26.973132496127192 44.388321047273706 H 0.0 **** 0.06
35804 H 78.98962276223665 28.274937452762487 43.59815114040529 H 0.0 **** 0.06
35805 H 78.39545052864088 26.597732170667626 43.53497541261305 H 0.0 **** 0.06
35806 C 87.05474195819477 19.785174316689535 109.4935494649247 C 0.0 **** -0.24
35807 H 87.32649701766627 19.141922999095286 110.33095420602844 H 0.0 **** 0.06
35808 H 86.9100328021014 20.80515667580659 109.85130781773968 H 0.0 **** 0.06
35809 H 86.13058026596252 19.42386456871343 109.04377384881786 H 0.0 **** 0.06
35810 H 87.85242891262556 19.769613756632538 108.7505399434598 H 0.0 **** 0.06
35811 C 2.2306811489866902 99.40659495357804 5.7348719470547564 C 0.0 **** -0.24
35812 H 1.5716381661190013 99.29130367000457 6.596595280695652 H 0.0 **** 0.06
35813 H 2.8259685219726265 100.31226249622345 5.852770197965128 H 0.0 **** 0.06
35814 H 1.631471984476974 99.48004613114675 4.82722772070764 H 0.0 **** 0.06
35815 H 2.8914200219273027 98.54330313406157 5.665294386775429 H 0.0 **** 0.06
35816 C 106.39426395520961 49.86181560981936 88.3450563725472 C 0.0 **** -0.24
35817 H 106.72448477204414 48.908220557815355 87.93266646188722 H 0.0 **** 0.06
35818 H 105.3044139911798 49.8895353720813 88.3644585233168 H 0.0 **** 0.06
35819 H 106.76696761986935 50.67476154139021 87.721852853659 H 0.0 **** 0.06
35820 H 106.7798915853679 49.97282434407765 89.357837719111 H 0.0 **** 0.06
35821 C 15.785784130062979 20.007742652079504 13.654392624368242 C 0.0 **** -0.24
35822 H 16.515347655400234 19.373621602486526 13.150617583580043 H 0.0 **** 0.06
35823 H 16.295926786444383 20.855987544546405 14.11276680915486 H 0.0 **** 0.06
35824 H 15.275047157933425 19.431257586628405 14.425673665458 H 0.0 **** 0.06
35825 H 15.0574625304979 20.370253849195667 12.929259539789644 H 0.0 **** 0.06
35826 C 4.996842946639077 75.9148155052886 56.44448888925416 C 0.0 **** -0.24
35827 H 4.114195047519516 75.28182210727687 56.34958994942889 H 0.0 **** 0.06
35828 H 5.887233548392203 75.33414445603267 56.20186680098493 H 0.0 **** 0.06
35829 H 5.0706210846962705 76.28472149464085 57.46625744708791 H 0.0 **** 0.06
35830 H 4.913946093626777 76.75716509234246 55.75797814819384 H 0.0 **** 0.06
35831 C 47.0964638552805 54.61118411247574 46.09963106462237 C 0.0 **** -0.24
35832 H 46.81884001221207 55.350257197457324 46.84970212685778 H 0.0 **** 0.06
35833 H 47.879031154027075 55.02012739740053 45.45873508271217 H 0.0 **** 0.06
35834 H 46.22467190865141 54.36149883852167 45.49546903254259 H 0.0 **** 0.06
35835 H 47.46515078487263 53.711637966722606 46.59423847885222 H 0.0 **** 0.06
35836 C 47.12340632461963 100.48796906397367 55.79748961954391 C 0.0 **** -0.24
35837 H 46.16839280970439 100.57764718036006 55.279010310081105 H 0.0 **** 0.06
35838 H 46.94598614176584 100.25393848094441 56.84729651073144 H 0.0 **** 0.06
35839 H 47.66765933773531 101.42858963349134 55.72008628146608 H 0.0 **** 0.06
35840 H 47.71005248253865 99.69060536859263 55.3412318469687 H 0.0 **** 0.06
35841 C 93.24570835524725 88.1245276310254 62.690941455327035 C 0.0 **** -0.24
35842 H 94.04725778338769 88.79919801872633 62.99092827408337 H 0.0 **** 0.06
35843 H 92.34036617695858 88.69971191206756 62.494892084570196 H 0.0 **** 0.06
35844 H 93.05572483680044 87.40803263063847 63.49025736415564 H 0.0 **** 0.06
35845 H 93.54011501866 87.58999160792742 61.78815595793252 H 0.0 **** 0.06
35846 C 104.35751033560443 83.24525986726624 104.46429394779898 C 0.0 **** -0.24
35847 H 103.62232064492068 83.49806629053478 105.22888717878254 H 0.0 **** 0.06
35848 H 104.7140207429835 84.1578896886345 103.98766429763407 H 0.0 **** 0.06
35849 H 103.896483444321 82.59979054105281 103.71629707946607 H 0.0 **** 0.06
35850 H 105.19609327409898 82.72426507142376 104.92624611789267 H 0.0 **** 0.06
35851 C 37.23442337010306 78.89497277836284 8.079841315108723 C 0.0 **** -0.24
35852 H 36.39480303544576 78.2342429709787 7.8652264948690345 H 0.0 **** 0.06
35853 H 37.65648407143581 78.64140745019589 9.053000186628111 H 0.0 **** 0.06
35854 H 36.89002156916709 79.929398194795 8.090050224328849 H 0.0 **** 0.06
35855 H 37.99791694010287 78.77301167309696 7.310539771149365 H 0.0 **** 0.06
35856 C 53.28199107759349 74.84649531021266 73.74724305779479 C 0.0 **** -0.24
35857 H 52.92111616512665 75.87254397114015 73.82164868177038 H 0.0 **** 0.06
35858 H 54.349414015111506 74.85220314600899 73.5232106920826 H 0.0 **** 0.06
35859 H 52.746806674290895 74.32939800677535 72.95140845319696 H 0.0 **** 0.06
35860 H 53.112456913764674 74.33256143920822 74.69376612099092 H 0.0 **** 0.06
35861 C 45.61340299573931 21.272004057759247 79.03041448334771 C 0.0 **** -0.24
35862 H 44.604328798082065 21.195232171939253 79.43562934496677 H 0.0 **** 0.06
35863 H 46.09786808041747 20.29647890506476 79.0751917427041 H 0.0 **** 0.06
35864 H 46.18706838790433 21.98979090589779 79.61730529333441 H 0.0 **** 0.06
35865 H 45.564218692011764 21.60700085671988 77.99439576999656 H 0.0 **** 0.06
35866 C 64.18481281482491 73.55735302164395 65.61349461062868 C 0.0 **** -0.24
35867 H 64.24917881150316 74.62559245626699 65.82294463598916 H 0.0 **** 0.06
35868 H 63.23965658043858 73.34141165692044 65.11547177469353 H 0.0 **** 0.06
35869 H 64.2386261148659 73.00113006598606 66.54992663620978 H 0.0 **** 0.06
35870 H 65.01238147882344 73.26337252161618 64.96792950852677 H 0.0 **** 0.06
35871 C 39.94919886333936 13.198074055198319 16.40695062938778 C 0.0 **** -0.24
35872 H 39.81860092665539 13.226117034688329 17.48902896936906 H 0.0 **** 0.06
35873 H 39.45332397985976 14.060425268006327 15.958839783479775 H 0.0 **** 0.06
35874 H 39.510913101889486 12.280667128806797 16.011688756725533 H 0.0 **** 0.06
35875 H 41.011758597185676 13.224685063449897 16.168182268587643 H 0.0 **** 0.06
35876 C 6.803622762961908 53.10287459146963 38.86760573875364 C 0.0 **** -0.24
35877 H 6.6430143825873245 53.13776346360876 37.790152984709266 H 0.0 **** 0.06
35878 H 7.83400957339839 52.81059907127096 39.0721511276148 H 0.0 **** 0.06
35879 H 6.1239226156490645 52.376865225867476 39.312315508770155 H 0.0 **** 0.06
35880 H 6.613203467856437 54.08820221128616 39.29433605415858 H 0.0 **** 0.06
35881 C 61.41266043078116 55.620265638330636 102.66051486100956 C 0.0 **** -0.24
35882 H 61.33575699578276 56.691589590667775 102.47727856961035 H 0.0 **** 0.06
35883 H 60.55757593203049 55.11317265214092 102.21285766441063 H 0.0 **** 0.06
35884 H 61.423326353992394 55.43520387157059 103.73495571403495 H 0.0 **** 0.06
35885 H 62.33263550606887 55.24133973341321 102.21732340859587 H 0.0 **** 0.06
35886 C 10.152637506319763 99.06310405279855 55.09661991653392 C 0.0 **** -0.24
35887 H 10.197277753288901 99.87618771257668 54.37179789662363 H 0.0 **** 0.06
35888 H 9.205575910901672 98.53323632945643 54.98994137859962 H 0.0 **** 0.06
35889 H 10.229876036675165 99.47132385039781 56.10516224174006 H 0.0 **** 0.06
35890 H 10.976858096328357 98.37310854998518 54.91957955325622 H 0.0 **** 0.06
35891 C 13.304898327565908 38.03583799038495 109.90483548532131 C 0.0 **** -0.24
35892 H 13.719817368886396 38.59315683322899 110.74400982459338 H 0.0 **** 0.06
35893 H 12.602085008579365 37.29009139657029 110.27617115803287 H 0.0 **** 0.06
35894 H 14.111048987388301 37.53800375857031 109.36552115491844 H 0.0 **** 0.06
35895 H 12.787231393223337 38.7208438400404 109.23391326560312 H 0.0 **** 0.06
35896 C 28.9207318607601 48.59462140588687 25.444823024604858 C 0.0 **** -0.24
35897 H 28.67094344536838 49.597153345314666 25.79409835709282 H 0.0 **** 0.06
35898 H 29.71919916351368 48.18374477238007 26.063647031170945 H 0.0 **** 0.06
35899 H 29.251976988067497 48.64304471057818 24.407341652369496 H 0.0 **** 0.06
35900 H 28.040419576886563 47.95608945329582 25.516746228478638 H 0.0 **** 0.06
35901 C 38.94430714049011 44.737096257240694 63.40322974277234 C 0.0 **** -0.24
35902 H 38.179170590315735 44.52976272435242 64.15124551117515 H 0.0 **** 0.06
35903 H 39.41300971613759 43.80259798418825 63.094813458532485 H 0.0 **** 0.06
35904 H 39.6979403326319 45.400008333764845 63.82873454973338 H 0.0 **** 0.06
35905 H 38.48413431759788 45.21595107532153 62.53851776615414 H 0.0 **** 0.06
35906 C 70.83245547726085 108.08391354008597 77.53877061441251 C 0.0 **** -0.24
35907 H 71.36458204749715 107.47356677190304 76.8089727815409 H 0.0 **** 0.06
35908 H 71.45422843702957 108.93276664883174 77.82493763807196 H 0.0 **** 0.06
35909 H 70.60891827969172 107.48390072837674 78.42117216967283 H 0.0 **** 0.06
35910 H 69.90279314256895 108.44583532992067 77.10058087079369 H 0.0 **** 0.06
35911 C 51.887938180453375 7.341918546137137 55.081376581045916 C 0.0 **** -0.24
35912 H 50.942053069433996 7.60101598967141 54.6045006427602 H 0.0 **** 0.06
35913 H 51.69627360690993 6.9551013733996 56.08168545409794 H 0.0 **** 0.06
35914 H 52.51567282201853 8.230837408363868 55.148527454657064 H 0.0 **** 0.06
35915 H 52.39658923735436 6.582470231809538 54.48843051251438 H 0.0 **** 0.06
35916 C 31.82181072139045 5.273087404062693 31.816378948533355 C 0.0 **** -0.24
35917 H 32.52590569855789 6.0712085460675524 32.048037215467815 H 0.0 **** 0.06
35918 H 32.37065921113188 4.362698768294877 31.57460918475445 H 0.0 **** 0.06
35919 H 31.208480703452324 5.565460459669609 30.96438071508723 H 0.0 **** 0.06
35920 H 31.180209748137088 5.092422344151132 32.679347142874065 H 0.0 **** 0.06
35921 C 15.595012371385394 86.50100099900109 64.72350405146713 C 0.0 **** -0.24
35922 H 16.200481749186963 87.07519666873222 64.02213902351815 H 0.0 **** 0.06
35923 H 15.610042259359801 86.98659149226316 65.69892481979737 H 0.0 **** 0.06
35924 H 16.001280251213743 85.49294535824515 64.8126052318747 H 0.0 **** 0.06
35925 H 14.569265461588657 86.44747240661962 64.35949489007902 H 0.0 **** 0.06
35926 C 109.62580592483624 56.45750392907314 35.29176396910759 C 0.0 **** -0.24
35927 H 109.55631509937507 57.01527962311121 34.35848588933055 H 0.0 **** 0.06
35928 H 108.62277370372703 56.24836823739179 35.665108866930325 H 0.0 **** 0.06
35929 H 110.1718799021242 57.04793119068859 36.02800620480423 H 0.0 **** 0.06
35930 H 110.15124362726198 55.519716694894896 35.11603699065347 H 0.0 **** 0.06
35931 C 50.89386116989544 54.13288892639122 100.6184000932458 C 0.0 **** -0.24
35932 H 51.21637430179617 55.08617929068947 100.1996740572932 H 0.0 **** 0.06
35933 H 50.487886579125735 53.50564540568445 99.82503075418643 H 0.0 **** 0.06
35934 H 50.125413755076785 54.309031483363185 101.37210174346522 H 0.0 **** 0.06
35935 H 51.74506087364521 53.631706704049975 101.07952934769943 H 0.0 **** 0.06
35936 C 108.47984716073506 101.7012164808134 46.295969541961625 C 0.0 **** -0.24
35937 H 109.34331637818352 101.03612477054072 46.27587798520128 H 0.0 **** 0.06
35938 H 108.69763198903851 102.56068246648839 46.929704266566546 H 0.0 **** 0.06
35939 H 107.61822641153447 101.16482257035162 46.692953129973375 H 0.0 **** 0.06
35940 H 108.2609371947431 102.04189552824975 45.283705755527095 H 0.0 **** 0.06
35941 C 16.312429488128583 61.87782239331142 14.522035149093483 C 0.0 **** -0.24
35942 H 15.471184682299352 61.2314493802365 14.275907673556333 H 0.0 **** 0.06
35943 H 16.756644457472333 61.55310957850578 15.463144812365158 H 0.0 **** 0.06
35944 H 15.963949307034891 62.90576773914965 14.620130218011695 H 0.0 **** 0.06
35945 H 17.05838725382049 61.82007078089045 13.728896742023153 H 0.0 **** 0.06
35946 C 86.19713176194361 54.06311838968321 68.35243219767614 C 0.0 **** -0.24
35947 H 85.15660023175727 54.37566527061563 68.440915640393 H 0.0 **** 0.06
35948 H 86.84858592334363 54.88625294708885 68.64595171575374 H 0.0 **** 0.06
35949 H 86.40463269697024 53.78497148096636 67.31915857001405 H 0.0 **** 0.06
35950 H 86.37512757284526 53.207906414510035 69.00281639059813 H 0.0 **** 0.06
35951 C 82.18536567371484 71.81701500048814 47.11693840035298 C 0.0 **** -0.24
35952 H 82.46392903948625 72.62469715256104 47.79354811538093 H 0.0 **** 0.06
35953 H 81.93900421757002 70.92652234233087 47.69712431908545 H 0.0 **** 0.06
35954 H 83.01921486195589 71.59736273394567 46.450316966200546 H 0.0 **** 0.06
35955 H 81.31847389758485 72.11798904703312 46.52901749986677 H 0.0 **** 0.06
35956 C 18.61883786547679 39.44574352694178 80.99302589634053 C 0.0 **** -0.24
35957 H 17.55254254350814 39.490478657854226 80.77420239608624 H 0.0 **** 0.06
35958 H 18.777674176663083 39.605394087815625 82.06008893042078 H 0.0 **** 0.06
35959 H 19.138902113608026 40.22036721765471 80.42852868568123 H 0.0 **** 0.06
35960 H 19.007089298622645 38.467839568275906 80.70949394039302 H 0.0 **** 0.06
35961 C 47.03502181263309 28.920439041315177 50.442038732876476 C 0.0 **** -0.24
35962 H 46.36683537883795 29.777946717094622 50.360257155046604 H 0.0 **** 0.06
35963 H 47.969082637767656 29.23180942180376 50.910354465023616 H 0.0 **** 0.06
35964 H 47.239310147964204 28.52383475715728 49.4486727710609 H 0.0 **** 0.06
35965 H 46.56294794189955 28.149371091773006 51.05185285896755 H 0.0 **** 0.06
35966 C 52.55920163903377 24.240044044626245 50.4655111543845 C 0.0 **** -0.24
35967 H 53.44003855402519 24.198148580664053 49.82428976841473 H 0.0 **** 0.06
35968 H 52.833584667079094 23.941115065625894 51.47719497532001 H 0.0 **** 0.06
35969 H 51.79746356926751 23.563416854675722 50.07991496293582 H 0.0 **** 0.06
35970 H 52.168865095161664 25.2578220221107 50.480614828147395 H 0.0 **** 0.06
35971 C 21.0607996184184 78.09052398937777 1.341030327048344 C 0.0 **** -0.24
35972 H 20.471169500714865 78.54781749321383 0.5467358687865271 H 0.0 **** 0.06
35973 H 20.401250873064612 77.78111211060416 2.1519307423126293 H 0.0 **** 0.06
35974 H 21.785888943683005 78.81226803446698 1.7172639532614937 H 0.0 **** 0.06
35975 H 21.58604041790872 77.22056368133534 0.9474406008193625 H 0.0 **** 0.06
35976 C 99.95115696177538 0.7322380581147314 64.36288080269559 C 0.0 **** -0.24
35977 H 100.89235993677926 0.5123872294914804 63.85962314228178 H 0.0 **** 0.06
35978 H 99.12117324389436 0.36101688462488823 63.760855345609286 H 0.0 **** 0.06
35979 H 99.85225961090816 1.8104717296109527 64.49328885225772 H 0.0 **** 0.06
35980 H 99.93930408732763 0.24561028579528 65.33845944249623 H 0.0 **** 0.06
35981 C 81.076078458486 83.20952140200191 14.039457011010228 C 0.0 **** -0.24
35982 H 81.23986226158468 83.81314445080606 14.931414827176923 H 0.0 **** 0.06
35983 H 80.11816444896355 82.69496721320274 14.119616249624585 H 0.0 **** 0.06
35984 H 81.87623413418837 82.47560925587312 13.945853780183171 H 0.0 **** 0.06
35985 H 81.07005298920733 83.85436468812581 13.16094318705602 H 0.0 **** 0.06
35986 C 49.95598970401126 55.06959416076461 93.19019858197906 C 0.0 **** -0.24
35987 H 50.87434983174871 54.486437736281175 93.2437140243021 H 0.0 **** 0.06
35988 H 49.358111697512264 54.72848057860199 92.3445336432507 H 0.0 **** 0.06
35989 H 50.20127923729962 56.12346039867748 93.06030744439376 H 0.0 **** 0.06
35990 H 49.38904648487774 54.939313353191096 94.11184060311543 H 0.0 **** 0.06
35991 C 9.626537801342323 20.747132179370738 83.8830089638586 C 0.0 **** -0.24
35992 H 10.29868644455297 20.21963589750476 83.20758871570045 H 0.0 **** 0.06
35993 H 10.042602705048978 21.7266216318543 84.11887151298849 H 0.0 **** 0.06
35994 H 9.508347507903892 20.172145420332015 84.8012785309939 H 0.0 **** 0.06
35995 H 8.654859455940766 20.87051844585835 83.40397056015293 H 0.0 **** 0.06
35996 C 49.26270425611136 16.813011044988826 109.35339126759867 C 0.0 **** -0.24
35997 H 48.332152650069105 16.3397514896499 109.03978667434794 H 0.0 **** 0.06
35998 H 50.09133159999874 16.12062651875607 109.20084558831037 H 0.0 **** 0.06
35999 H 49.19762946702309 17.07694473233859 110.4083253631161 H 0.0 **** 0.06
36000 H 49.4273554010436 17.714119472332015 108.76283955765234 H 0.0 **** 0.06
36001 C 31.197110545663918 26.04990398644037 10.083798335664442 C 0.0 **** -0.24
36002 H 30.95946578634198 25.390699812127878 10.919996676268212 H 0.0 **** 0.06
36003 H 32.23065576673085 26.38525929072125 10.168526225869066 H 0.0 **** 0.06
36004 H 30.53173437358214 26.91201409952845 10.101528038867114 H 0.0 **** 0.06
36005 H 31.06566677007811 25.50772356046042 9.147332289019655 H 0.0 **** 0.06
36006 C 13.38694244510532 18.201548872814275 40.446620718162706 C 0.0 **** -0.24
36007 H 13.805500289877216 17.312453312187632 40.91755501737063 H 0.0 **** 0.06
36008 H 12.583875444216346 18.59748078669415 41.06811169537096 H 0.0 **** 0.06
36009 H 12.991175763982412 17.939647888091308 39.464847633211036 H 0.0 **** 0.06
36010 H 14.166363750831493 18.954707989810593 40.33516912575368 H 0.0 **** 0.06
36011 C 77.17699035004847 97.44955506140019 77.36669236776751 C 0.0 **** -0.24
36012 H 77.38117792123484 96.40940376825506 77.11018014496138 H 0.0 **** 0.06
36013 H 77.92278411735293 97.79971248447805 78.0797226081272 H 0.0 **** 0.06
36014 H 76.18478698918472 97.52572657947792 77.81000609038162 H 0.0 **** 0.06
36015 H 77.2212244297786 98.06082956838605 76.46500030103915 H 0.0 **** 0.06
36016 C 60.80885516020973 86.95126641873046 1.8492328279288683 C 0.0 **** -0.24
36017 H 61.805108230463134 87.38991189134664 1.8010803801950672 H 0.0 **** 0.06
36018 H 60.423117187984104 87.03947824116938 2.865295653741722 H 0.0 **** 0.06
36019 H 60.86168768810592 85.89890765998945 1.5703072177234016 H 0.0 **** 0.06
36020 H 60.14680756624469 87.47746103797846 1.1616007068610106 H 0.0 **** 0.06
36021 C 43.5799966096032 107.64420915041188 8.563394179278475 C 0.0 **** -0.24
36022 H 44.020576186686526 108.50737876110395 9.06164266858184 H 0.0 **** 0.06
36023 H 42.50922513253721 107.61383669480523 8.76686832629332 H 0.0 **** 0.06
36024 H 44.047803546713595 106.73255188083272 8.93514197957711 H 0.0 **** 0.06
36025 H 43.743855853681 107.72318224174091 7.488576919632578 H 0.0 **** 0.06
36026 C 7.018183469151836 77.33562038302144 24.150132345043886 C 0.0 **** -0.24
36027 H 6.94758016717131 78.11228273774266 24.91129097805026 H 0.0 **** 0.06
36028 H 7.077928780371323 76.35949770517834 24.631742933586736 H 0.0 **** 0.06
36029 H 7.910535134618883 77.49866736415996 23.546109249775213 H 0.0 **** 0.06
36030 H 6.135280897343463 77.37206459284674 23.51150520063814 H 0.0 **** 0.06
36031 C 66.639134569237 22.11220961166248 82.3532393614085 C 0.0 **** -0.24
36032 H 65.9430928026631 21.285391157850654 82.4971902965132 H 0.0 **** 0.06
36033 H 67.52585148793003 21.950125881433053 82.96611023247951 H 0.0 **** 0.06
36034 H 66.1594114752271 23.045806800228547 82.64788965785715 H 0.0 **** 0.06
36035 H 66.92632458194953 22.166201872035742 81.30372309063222 H 0.0 **** 0.06
36036 C 104.40928000136358 12.841770381083549 61.22496325225562 C 0.0 **** -0.24
36037 H 104.7323668191145 13.649819374712479 60.56886688113407 H 0.0 **** 0.06
36038 H 105.21605065396625 12.11640800136864 61.33405177395956 H 0.0 **** 0.06
36039 H 103.53492729893293 12.352334397178012 60.79484170133486 H 0.0 **** 0.06
36040 H 104.15267872608337 13.249890841010355 62.20347758414147 H 0.0 **** 0.06
36041 C 60.18346467408651 47.417501535340044 49.19277511542108 C 0.0 **** -0.24
36042 H 59.12077299890737 47.403143818386944 48.949419360627545 H 0.0 **** 0.06
36043 H 60.53072130013882 48.449269644835546 49.23847075351837 H 0.0 **** 0.06
36044 H 60.738987838711125 46.88033905576649 48.424104047296424 H 0.0 **** 0.06
36045 H 60.34075002183815 46.93698847357839 50.158090720095245 H 0.0 **** 0.06
36046 C 31.20000111635347 106.63760594670468 18.559248099952963 C 0.0 **** -0.24
36047 H 30.329317962373317 105.99732141277357 18.69929191740608 H 0.0 **** 0.06
36048 H 30.882370217468022 107.60243175907942 18.163659293249196 H 0.0 **** 0.06
36049 H 31.88854208165079 106.16546217016776 17.8580517262881 H 0.0 **** 0.06
36050 H 31.700003695611997 106.7836146437519 19.516627649848726 H 0.0 **** 0.06
36051 C 27.304305535501825 54.227970192643376 71.63613123994315 C 0.0 **** -0.24
36052 H 28.15291425545397 54.646438592406724 72.17664315985945 H 0.0 **** 0.06
36053 H 27.647648030005946 53.418254055095716 70.99132080245732 H 0.0 **** 0.06
36054 H 26.84182039899251 55.00517609411795 71.0278391966973 H 0.0 **** 0.06
36055 H 26.574776426613333 53.84112367866624 72.34762318279775 H 0.0 **** 0.06
36056 C 40.47503299876996 48.427060385968645 95.43058212166513 C 0.0 **** -0.24
36057 H 41.48073775784536 48.04327223325072 95.60127867007172 H 0.0 **** 0.06
36058 H 39.79004033803926 47.98584258253763 96.15556053914278 H 0.0 **** 0.06
36059 H 40.15337423778277 48.16675380844106 94.4217759461555 H 0.0 **** 0.06
36060 H 40.475774345682225 49.51038881716826 95.54356709886486 H 0.0 **** 0.06
36061 C 21.952089637857057 104.88354700094106 20.293778008708216 C 0.0 **** -0.24
36062 H 22.56556151517529 105.7818878888378 20.34358285929116 H 0.0 **** 0.06
36063 H 22.42976618053048 104.15282364923863 19.641103329939625 H 0.0 **** 0.06
36064 H 20.968628397039836 105.13696522942797 19.897591266055628 H 0.0 **** 0.06
36065 H 21.842269600618152 104.46236070869489 21.29348918577716 H 0.0 **** 0.06
36066 C 83.8452731324814 96.5701684193093 42.81968470438109 C 0.0 **** -0.24
36067 H 84.43544425173513 96.83190790934079 43.69780554529473 H 0.0 **** 0.06
36068 H 83.95171347064843 97.35008528215434 42.065169023281584 H 0.0 **** 0.06
36069 H 82.79647455939653 96.47689178094286 43.101011453194005 H 0.0 **** 0.06
36070 H 84.19862150405089 95.62099196428082 42.41462322020545 H 0.0 **** 0.06
36071 C 107.39917576671259 21.977487392902674 102.04589298563153 C 0.0 **** -0.24
36072 H 107.7119190965077 22.464230304202715 101.12232454755934 H 0.0 **** 0.06
36073 H 106.35957160843189 22.227676542017832 102.2547691693872 H 0.0 **** 0.06
36074 H 108.0287112861981 22.320706110688036 102.86804125130581 H 0.0 **** 0.06
36075 H 107.4987337896389 20.89735823173376 101.93831543162614 H 0.0 **** 0.06
36076 C 41.595302236323505 58.301599970987894 18.81084175333811 C 0.0 **** -0.24
36077 H 40.71051995631751 57.68821067575652 18.9795859207253 H 0.0 **** 0.06
36078 H 41.321693351809586 59.35564850902162 18.863192642753376 H 0.0 **** 0.06
36079 H 42.00754625586637 58.08051461515177 17.826528873651057 H 0.0 **** 0.06
36080 H 42.34043387553129 58.08066008918965 19.575509768464656 H 0.0 **** 0.06
36081 C 17.98349269824439 6.95591621086723 69.87110238233355 C 0.0 **** -0.24
36082 H 18.673312142504415 7.599107844812892 69.32517439986303 H 0.0 **** 0.06
36083 H 17.970096726610677 7.247432275803817 70.92193287729208 H 0.0 **** 0.06
36084 H 18.309210963778412 5.91874946122428 69.7864057420706 H 0.0 **** 0.06
36085 H 16.98255566688988 7.058413058730281 69.45249258466812 H 0.0 **** 0.06
36086 C 23.167100621459518 106.34164709487723 73.2975677510175 C 0.0 **** -0.24
36087 H 22.57200374288257 105.51394821691598 72.91087014641212 H 0.0 **** 0.06
36088 H 22.804791726068235 107.27774589476215 72.87172027504822 H 0.0 **** 0.06
36089 H 24.212346511530278 106.19728146061736 73.02195863111409 H 0.0 **** 0.06
36090 H 23.079065474942187 106.37687409247957 74.3823430660271 H 0.0 **** 0.06
36091 C 16.12483274013607 82.86354489023284 31.762333385946476 C 0.0 **** -0.24
36092 H 16.84558666373968 83.67439758777579 31.66243164285828 H 0.0 **** 0.06
36093 H 15.80523383832066 82.5374279853313 30.77233032373954 H 0.0 **** 0.06
36094 H 15.26010853106942 83.21361236239488 32.32631437180254 H 0.0 **** 0.06
36095 H 16.587756730151227 82.02832605931712 32.288898357142386 H 0.0 **** 0.06
36096 C 75.1795464178907 73.22143538018389 22.95571123876232 C 0.0 **** -0.24
36097 H 75.40025274081313 72.32887796437353 22.369941036286434 H 0.0 **** 0.06
36098 H 74.10021883844331 73.32523589988563 23.066999874302212 H 0.0 **** 0.06
36099 H 75.57901287659074 74.0979665262231 22.445675528376626 H 0.0 **** 0.06
36100 H 75.64050074361502 73.13214994146244 23.93953691689137 H 0.0 **** 0.06
36101 C 21.786189961054976 71.14117486247824 25.378073879358823 C 0.0 **** -0.24
36102 H 22.66302679827239 71.16745870114477 24.73117740557592 H 0.0 **** 0.06
36103 H 20.894607813112614 70.97718305739215 24.77305348217024 H 0.0 **** 0.06
36104 H 21.696992801637517 72.09032158652445 25.907362211909117 H 0.0 **** 0.06
36105 H 21.891464607500335 70.33127083819241 26.09933486466096 H 0.0 **** 0.06
36106 C 71.52260563961505 36.426245799947935 67.72358554575845 C 0.0 **** -0.24
36107 H 72.34529486935065 36.878802934946236 68.277170409694 H 0.0 **** 0.06
36108 H 71.81523272634752 36.29745490139368 66.68139168731186 H 0.0 **** 0.06
36109 H 70.64751121410586 37.07361063284878 67.77807626229327 H 0.0 **** 0.06
36110 H 71.28403423033171 35.45469962320732 68.15625335916228 H 0.0 **** 0.06
36111 C 4.97651992234273 106.8375659355172 89.77510236573946 C 0.0 **** -0.24
36112 H 5.563321358464881 106.1425129531188 90.37575797755215 H 0.0 **** 0.06
36113 H 4.169826178378074 106.29749330309556 89.27934083790285 H 0.0 **** 0.06
36114 H 5.618942257503958 107.30104968694354 89.02626653854279 H 0.0 **** 0.06
36115 H 4.555460314053734 107.60917245397081 90.42072841000208 H 0.0 **** 0.06
36116 C 73.26906791765393 8.452751553149483 81.22796219802933 C 0.0 **** -0.24
36117 H 73.96026057114318 9.019325088671621 80.60418750827108 H 0.0 **** 0.06
36118 H 72.92961571594412 9.077283699497457 82.05512699506647 H 0.0 **** 0.06
36119 H 73.77445108839301 7.5706686627639215 81.6216656095263 H 0.0 **** 0.06
36120 H 72.41130685685576 8.143550481686077 80.63011905336964 H 0.0 **** 0.06
36121 C 72.55554508805672 31.504845822250417 0.5342382680503848 C 0.0 **** -0.24
36122 H 72.93405903639555 30.489639201452263 0.4162746032198177 H 0.0 **** 0.06
36123 H 72.73946629847455 32.06966958198046 -0.3798666808429436 H 0.0 **** 0.06
36124 H 73.06485856567909 31.988006045354354 1.3689081328828854 H 0.0 **** 0.06
36125 H 71.48484194036052 31.47137482644186 0.7328311594941246 H 0.0 **** 0.06
36126 C 11.534059513790908 79.81547693014467 56.97696037601205 C 0.0 **** -0.24
36127 H 11.751080241996362 79.6887987800461 58.0371128790156 H 0.0 **** 0.06
36128 H 10.671364268945382 80.47054400818732 56.85778931333681 H 0.0 **** 0.06
36129 H 11.317510782064886 78.84384474758401 56.53223201765874 H 0.0 **** 0.06
36130 H 12.39816693119272 80.25770996936367 56.48005183749105 H 0.0 **** 0.06
36131 C 4.450070780847939 108.97029050990791 49.122681547642635 C 0.0 **** -0.24
36132 H 5.096915250949243 108.13448372911186 48.859480302191216 H 0.0 **** 0.06
36133 H 4.3812218715585285 109.04983391671477 50.208119000094015 H 0.0 **** 0.06
36134 H 3.4562598102806295 108.80592363534072 48.7062766780013 H 0.0 **** 0.06
36135 H 4.865149158035807 109.8929823401638 48.7163953308743 H 0.0 **** 0.06
36136 C 94.75983573241558 46.73297341561312 47.97972846824939 C 0.0 **** -0.24
36137 H 95.41208051113813 46.45606818821092 48.80827901000748 H 0.0 **** 0.06
36138 H 94.15636731986172 47.595181030982296 48.265486568234735 H 0.0 **** 0.06
36139 H 94.10577423127212 45.89499464449048 47.737982980371385 H 0.0 **** 0.06
36140 H 95.36525060103136 46.984797037390145 47.10922837487769 H 0.0 **** 0.06
36141 C 98.61389117607814 36.58439807306934 10.639751706929985 C 0.0 **** -0.24
36142 H 98.78544338301916 36.265644027527514 9.611718429414523 H 0.0 **** 0.06
36143 H 99.19246765594352 37.48646811892297 10.841165878917849 H 0.0 **** 0.06
36144 H 98.92554203302612 35.79345093636152 11.321307323738353 H 0.0 **** 0.06
36145 H 97.55422915341524 36.79215386688759 10.78410751186233 H 0.0 **** 0.06
36146 C 43.57321959659615 0.2646076409080331 64.82865532788375 C 0.0 **** -0.24
36147 H 43.16523748454726 1.2605402739908946 65.00178397530894 H 0.0 **** 0.06
36148 H 42.82022855697791 -0.48356041621743895 65.07827470315766 H 0.0 **** 0.06
36149 H 44.45303643247428 0.11856104378248844 65.45528875921394 H 0.0 **** 0.06
36150 H 43.852797970854255 0.16351762565647743 63.7803302655322 H 0.0 **** 0.06
36151 C 26.542756288661053 75.86544406528922 110.68124731750392 C 0.0 **** -0.24
36152 H 26.346751690773033 76.72197520761016 111.32620803597385 H 0.0 **** 0.06
36153 H 25.639713681909484 75.61967764153009 110.12090658551104 H 0.0 **** 0.06
36154 H 26.835686628207625 75.01039503068719 111.29131841723226 H 0.0 **** 0.06
36155 H 27.34653661991959 76.1090200738582 109.98675425107373 H 0.0 **** 0.06
36156 C 2.018808978339962 37.83359453047129 48.04837957925321 C 0.0 **** -0.24
36157 H 2.995959239080605 38.10792242614744 48.445241367522044 H 0.0 **** 0.06
36158 H 2.0971729168703916 36.88665918106804 47.51421268403209 H 0.0 **** 0.06
36159 H 1.6745356295331817 38.60984938892159 47.3639008992009 H 0.0 **** 0.06
36160 H 1.3087736432921702 37.731288143670554 48.86884099910006 H 0.0 **** 0.06
36161 C 66.35117581195772 32.32026391806954 13.290630986350635 C 0.0 **** -0.24
36162 H 66.84143396732196 33.18183931970577 13.744168761197756 H 0.0 **** 0.06
36163 H 66.11794201890808 32.54140916714866 12.248745414472381 H 0.0 **** 0.06
36164 H 65.43001609692158 32.10042813784793 13.830712242690936 H 0.0 **** 0.06
36165 H 67.01443160819139 31.45705292656953 13.339244046522538 H 0.0 **** 0.06
36166 C 9.314724550544064 96.77483721288849 3.8819301853934594 C 0.0 **** -0.24
36167 H 8.540086437065959 96.09771513926012 4.242499520995796 H 0.0 **** 0.06
36168 H 9.993888844073105 96.23203533381167 3.2245629283820634 H 0.0 **** 0.06
36169 H 9.869975575051324 97.1739585552391 4.73060926098146 H 0.0 **** 0.06
36170 H 8.852648376217088 97.5947987701336 3.3325001474906095 H 0.0 **** 0.06
36171 C 28.656833376385087 65.76469709857669 22.297609439536956 C 0.0 **** -0.24
36172 H 28.778358169948703 65.30035478808483 21.31971445410555 H 0.0 **** 0.06
36173 H 29.24447357428825 66.68288140216886 22.338565668417584 H 0.0 **** 0.06
36174 H 29.000973838576066 65.07867361025647 23.071467849228227 H 0.0 **** 0.06
36175 H 27.604537522412905 65.99911022113311 22.460660638987886 H 0.0 **** 0.06
36176 C 71.64381253895047 12.433487123474336 93.65008691987921 C 0.0 **** -0.24
36177 H 71.16833615367224 11.751058653979655 92.94527251499292 H 0.0 **** 0.06
36178 H 72.31192637053951 11.87396960398479 94.3041616421642 H 0.0 **** 0.06
36179 H 70.87838037788765 12.928740089821659 94.24767695211538 H 0.0 **** 0.06
36180 H 72.21579105419664 13.181624676556524 93.09988278819345 H 0.0 **** 0.06
36181 C 61.199968844104774 73.59090709859952 28.972775893477888 C 0.0 **** -0.24
36182 H 61.042121450184595 73.07442402956606 28.025901467580525 H 0.0 **** 0.06
36183 H 61.27358625165766 74.66326325797277 28.79282462561025 H 0.0 **** 0.06
36184 H 62.12260111158332 73.23470309066931 29.43069523289188 H 0.0 **** 0.06
36185 H 60.361951569630094 73.38985027681096 29.640294389617253 H 0.0 **** 0.06
36186 C 93.78306004030036 35.58503565579991 109.37276582315967 C 0.0 **** -0.24
36187 H 94.12519610104287 36.00875246821914 110.31736137066441 H 0.0 **** 0.06
36188 H 93.7099570070168 34.5008588734093 109.46587570834438 H 0.0 **** 0.06
36189 H 94.4922095461656 35.83495694350654 108.58423426928356 H 0.0 **** 0.06
36190 H 92.8039887829989 35.99520542846875 109.12503216177252 H 0.0 **** 0.06
36191 C 73.95990269097632 79.79808847940403 13.661014698482461 C 0.0 **** -0.24
36192 H 74.45280996325363 80.34018222870532 14.4687161130567 H 0.0 **** 0.06
36193 H 74.70985645090258 79.2913082831208 13.053048448195682 H 0.0 **** 0.06
36194 H 73.40105120649679 80.49875125648636 13.041018408515754 H 0.0 **** 0.06
36195 H 73.27659130903123 79.0610727135303 14.083128494992025 H 0.0 **** 0.06
36196 C 82.17315223780238 0.15934539200537756 86.21671795505176 C 0.0 **** -0.24
36197 H 81.14620650678296 -0.14600580048704614 86.41452288502026 H 0.0 **** 0.06
36198 H 82.28429007744211 1.2208622400238482 86.43733998647025 H 0.0 **** 0.06
36199 H 82.4111423812286 -0.022017234602856206 85.1689975829052 H 0.0 **** 0.06
36200 H 82.850474085778 -0.4160740744200666 86.84832963880581 H 0.0 **** 0.06
36201 C 40.33788956152256 51.140314795565246 18.86553057212413 C 0.0 **** -0.24
36202 H 39.86687245060301 51.514773965042366 19.77440677101947 H 0.0 **** 0.06
36203 H 40.14906239754734 50.07136696209767 18.772549362487553 H 0.0 **** 0.06
36204 H 41.41201376027797 51.31738056257893 18.915175554691558 H 0.0 **** 0.06
36205 H 39.92335137757988 51.66030563292702 18.001818026543077 H 0.0 **** 0.06
36206 C 14.682834429964075 17.828254232748264 96.23397991451554 C 0.0 **** -0.24
36207 H 14.491054283498812 17.77670629919288 97.30630121825254 H 0.0 **** 0.06
36208 H 15.269038033749808 16.961657112990338 95.9283486082611 H 0.0 **** 0.06
36209 H 15.236149742762308 18.740687615402834 96.00870611242738 H 0.0 **** 0.06
36210 H 13.73488288722973 17.835750270140664 95.6958457104464 H 0.0 **** 0.06
36211 C 31.683007963475646 11.29283765788007 97.54236337863688 C 0.0 **** -0.24
36212 H 32.61816531482908 11.142392144273018 98.0819341495673 H 0.0 **** 0.06
36213 H 31.359392220098186 12.327729144601648 97.65735570786109 H 0.0 **** 0.06
36214 H 30.919935117311738 10.626387881546904 97.9457023302644 H 0.0 **** 0.06
36215 H 31.83410913897486 11.074443934770684 96.48527192489331 H 0.0 **** 0.06
36216 C 45.60088797647887 60.67989546757383 78.09984993777697 C 0.0 **** -0.24
36217 H 44.98985787365375 60.56587278311963 78.99439434446697 H 0.0 **** 0.06
36218 H 45.58533587303418 61.722562413915426 77.7804057796666 H 0.0 **** 0.06
36219 H 45.20133245852705 60.050479499758865 77.30444835497056 H 0.0 **** 0.06
36220 H 46.62672537871281 60.38154485875367 78.31868852591028 H 0.0 **** 0.06
36221 C 35.98076759518108 68.5570434109778 100.23572091797026 C 0.0 **** -0.24
36222 H 36.41413253179866 68.12368045309381 101.13701282509192 H 0.0 **** 0.06
36223 H 35.10815245191979 67.97497655625114 99.93725017808292 H 0.0 **** 0.06
36224 H 36.71873493180317 68.5416377766175 99.43433427248476 H 0.0 **** 0.06
36225 H 35.681106893636596 69.5853400087424 100.43557650083189 H 0.0 **** 0.06
36226 C 5.786325427214038 20.149470691017306 24.011115636317385 C 0.0 **** -0.24
36227 H 6.321873578517739 20.47577538917893 24.902796166195543 H 0.0 **** 0.06
36228 H 4.724492380129732 20.052685842066307 24.241167998384498 H 0.0 **** 0.06
36229 H 6.17708519892409 19.185647097125308 23.68559054054313 H 0.0 **** 0.06
36230 H 5.921087817140943 20.88408028306162 23.21779317314528 H 0.0 **** 0.06
36231 C 92.6237317396403 77.20851437106438 45.82382106334262 C 0.0 **** -0.24
36232 H 91.83647006055338 76.66408946434831 46.34534796077986 H 0.0 **** 0.06
36233 H 92.4129851874477 78.2770918183989 45.864031146918364 H 0.0 **** 0.06
36234 H 92.66277651566998 76.88391509902146 44.78425744159881 H 0.0 **** 0.06
36235 H 93.58190188967512 77.00768389183764 46.30330289323939 H 0.0 **** 0.06
36236 C 64.23932665255946 46.40878130511214 1.4178039555318254 C 0.0 **** -0.24
36237 H 63.18030737680249 46.1679439596208 1.3258459637421156 H 0.0 **** 0.06
36238 H 64.75758071946515 46.11884913656979 0.5036180850963659 H 0.0 **** 0.06
36239 H 64.66340913850395 45.8667100477559 2.263129062726315 H 0.0 **** 0.06
36240 H 64.35506122016922 47.480447846320004 1.577772807130052 H 0.0 **** 0.06
36241 C 72.38618320495739 90.32028840762513 1.4766383520644553 C 0.0 **** -0.24
36242 H 71.78930880980849 91.14436773851905 1.8676510786422256 H 0.0 **** 0.06
36243 H 72.2186855315276 90.22907933108954 0.40267734289848534 H 0.0 **** 0.06
36244 H 72.0926666991641 89.39426286300323 1.9708017579989843 H 0.0 **** 0.06
36245 H 73.44204032856652 90.51481216398413 1.6653947680752879 H 0.0 **** 0.06
36246 C 67.63145062579362 110.59177817611987 55.95698180757752 C 0.0 **** -0.24
36247 H 66.87181477454024 111.37249759450185 55.917316998765095 H 0.0 **** 0.06
36248 H 68.58951579583388 110.99965392028605 55.63374308643312 H 0.0 **** 0.06
36249 H 67.34451089655256 109.77213911708856 55.29877811578737 H 0.0 **** 0.06
36250 H 67.71974986465686 110.22265141177627 56.97905149060609 H 0.0 **** 0.06
36251 C 74.25034079394665 81.94571139539363 53.16733197370954 C 0.0 **** -0.24
36252 H 75.16636233729895 82.03483746148795 52.582232945803625 H 0.0 **** 0.06
36253 H 74.10962712873551 80.90639774828715 53.46407350338791 H 0.0 **** 0.06
36254 H 73.40236448262661 82.26973190621014 52.56408359309326 H 0.0 **** 0.06
36255 H 74.32505959202183 82.57062208770704 54.05625118695917 H 0.0 **** 0.06
36256 C 43.904792577033035 110.59212643736383 5.286912784824949 C 0.0 **** -0.24
36257 H 44.51489670131224 110.8155299405177 4.411713627796132 H 0.0 **** 0.06
36258 H 43.187328260343534 111.39759557001662 5.444780388421407 H 0.0 **** 0.06
36259 H 44.54718524083033 110.50135321085322 6.1634381261870885 H 0.0 **** 0.06
36260 H 43.37139988333686 109.65481203059423 5.129360703879684 H 0.0 **** 0.06
36261 C 23.408553640735647 6.1000015996620505 27.342720688827313 C 0.0 **** -0.24
36262 H 22.66915685929021 6.670845197763375 26.782649599835423 H 0.0 **** 0.06
36263 H 24.08962502018639 6.784079268995063 27.849105184439537 H 0.0 **** 0.06
36264 H 23.972231027632887 5.465857520687543 26.65849425037436 H 0.0 **** 0.06
36265 H 22.90293022745206 5.477018115298016 28.08166274285705 H 0.0 **** 0.06
36266 C 12.538026953833537 105.69114955675275 51.040519007048616 C 0.0 **** -0.24
36267 H 11.501677701554001 105.53138071307069 51.340065221444604 H 0.0 **** 0.06
36268 H 12.874636430361761 104.85188128947141 50.43249965658585 H 0.0 **** 0.06
36269 H 13.164000807652798 105.77052542096476 51.929077906106194 H 0.0 **** 0.06
36270 H 12.610583159326325 106.61250818897395 50.46124300951163 H 0.0 **** 0.06
36271 C 109.89401395121413 53.3809883870802 31.51891449256479 C 0.0 **** -0.24
36272 H 109.30891795038204 53.32583327029203 32.43623136894967 H 0.0 **** 0.06
36273 H 110.32147647277057 52.40200301338508 31.301221626652683 H 0.0 **** 0.06
36274 H 110.69671135118304 54.10807860793771 31.643563791111987 H 0.0 **** 0.06
36275 H 109.24997880334777 53.68793817111943 30.695606393196613 H 0.0 **** 0.06
36276 C 14.286115248661599 105.1891275928091 37.432906721592474 C 0.0 **** -0.24
36277 H 14.590506294923337 105.3483375253442 36.39723778497296 H 0.0 **** 0.06
36278 H 13.276594147579953 105.57355291380473 37.57719127478612 H 0.0 **** 0.06
36279 H 14.974057291835674 105.71318436697389 38.096646122205556 H 0.0 **** 0.06
36280 H 14.304831231054305 104.12241273585892 37.657278915592116 H 0.0 **** 0.06
36281 C 61.15299514969618 4.3844919557023445 30.00163907173038 C 0.0 **** -0.24
36282 H 61.56756887452556 3.4532051017629897 29.614446350301534 H 0.0 **** 0.06
36283 H 61.96367504277079 5.084694252507049 30.20412019545313 H 0.0 **** 0.06
36284 H 60.60564875998246 4.1839254413520734 30.922385893060977 H 0.0 **** 0.06
36285 H 60.47602350739375 4.81427238298653 29.262666838924872 H 0.0 **** 0.06
36286 C 92.9859782300344 87.3133736946553 78.09691883638635 C 0.0 **** -0.24
36287 H 93.15050489077993 88.38372818991064 77.96997789996095 H 0.0 **** 0.06
36288 H 92.95261243749518 87.07516603933448 79.16018248330468 H 0.0 **** 0.06
36289 H 93.79995683357912 86.76284358847784 77.62557909477098 H 0.0 **** 0.06
36290 H 92.04103839372834 87.03374701298202 77.6319421526895 H 0.0 **** 0.06
36291 C 78.78214386678944 85.94613111548085 18.05335733528537 C 0.0 **** -0.24
36292 H 79.73962710968132 86.46442705524248 18.103316118770636 H 0.0 **** 0.06
36293 H 78.19938116947726 86.17221641756953 18.94570298106538 H 0.0 **** 0.06
36294 H 78.95484105170533 84.87076353051685 17.9931904036402 H 0.0 **** 0.06
36295 H 78.23672589877594 86.27575510930308 17.168365777696067 H 0.0 **** 0.06
36296 C 107.25272200728915 65.4100393238835 72.27718985744775 C 0.0 **** -0.24
36297 H 106.8124014421246 64.42592125975342 72.11478542441296 H 0.0 **** 0.06
36298 H 108.25698738107748 65.29484125873894 72.68705969357387 H 0.0 **** 0.06
36299 H 106.63610708295799 65.97400927172664 72.97698101117408 H 0.0 **** 0.06
36300 H 107.30617554011027 65.94378743264694 71.32825023110126 H 0.0 **** 0.06
36301 C 66.50562652378159 31.681290311107098 5.381322836246962 C 0.0 **** -0.24
36302 H 67.1427842042718 31.234994979318664 4.618386892364903 H 0.0 **** 0.06
36303 H 67.08693359421216 32.39099665427767 5.970918277619667 H 0.0 **** 0.06
36304 H 66.11645777588029 30.899449966213034 6.034373483443451 H 0.0 **** 0.06
36305 H 65.67457727558403 32.20020104642187 4.902914473045973 H 0.0 **** 0.06
36306 C 52.548691730063425 101.6046170826558 32.54153506916138 C 0.0 **** -0.24
36307 H 51.97996298006873 102.25234481488633 33.2092222422977 H 0.0 **** 0.06
36308 H 53.524601094365345 101.3972903394081 32.98137743104117 H 0.0 **** 0.06
36309 H 52.68163064632734 102.10063799162464 31.579984111798467 H 0.0 **** 0.06
36310 H 52.00894277981667 100.66949713370252 32.39663711626354 H 0.0 **** 0.06
36311 C 9.299203332206417 2.8708562547291194 36.87401581567116 C 0.0 **** -0.24
36312 H 9.649831835770385 1.8401570396571287 36.806283983242395 H 0.0 **** 0.06
36313 H 9.519787701385496 3.2644621805397094 37.86610080628765 H 0.0 **** 0.06
36314 H 8.223489987262923 2.9001272327282095 36.702036992813106 H 0.0 **** 0.06
36315 H 9.80411234511783 3.4758808026740837 36.12156391019661 H 0.0 **** 0.06
36316 C 71.44647702683173 76.39739024830111 78.22470259345837 C 0.0 **** -0.24
36317 H 71.48758282111743 77.48503031176283 78.16174893180397 H 0.0 **** 0.06
36318 H 70.56419457198399 76.0361183132833 77.69544269648387 H 0.0 **** 0.06
36319 H 71.39115502206843 76.09726409691311 79.27127486438994 H 0.0 **** 0.06
36320 H 72.34151062789019 75.97280082159489 77.77069447411586 H 0.0 **** 0.06
36321 C 11.32317750001889 37.96149152085627 3.521289428721502 C 0.0 **** -0.24
36322 H 12.307938819658858 38.15147601995602 3.948623938664923 H 0.0 **** 0.06
36323 H 11.435473332268575 37.45081742529311 2.5640713634358008 H 0.0 **** 0.06
36324 H 10.80429748395316 38.90765134241832 3.3697017671213416 H 0.0 **** 0.06
36325 H 10.747015440965775 37.33532415720674 4.202087062086946 H 0.0 **** 0.06
36326 C 91.33720836815891 38.83885896243751 76.21897837755924 C 0.0 **** -0.24
36327 H 92.26905973267955 38.63585139877836 76.74630623738928 H 0.0 **** 0.06
36328 H 90.52527926693901 38.93131998542577 76.94090626080124 H 0.0 **** 0.06
36329 H 91.12270305523379 38.01932772974311 75.53303540316085 H 0.0 **** 0.06
36330 H 91.4324608797395 39.76772647697567 75.6574226933024 H 0.0 **** 0.06
36331 C 64.63796120362696 5.4199663391906725 21.62355750540408 C 0.0 **** -0.24
36332 H 65.48988068841345 5.833652354613607 22.163527710490627 H 0.0 **** 0.06
36333 H 64.44732678387908 4.404527571908401 21.971952965486025 H 0.0 **** 0.06
36334 H 64.85742783056816 5.403985910319822 20.55608022292992 H 0.0 **** 0.06
36335 H 63.75822444986636 6.037442495719127 21.804883652148618 H 0.0 **** 0.06
36336 C 64.90666275778449 108.97410842933849 93.51531946469885 C 0.0 **** -0.24
36337 H 64.91427256834123 109.98491497041164 93.10659462283286 H 0.0 **** 0.06
36338 H 65.91898856152832 108.57032865482238 93.50454517717716 H 0.0 **** 0.06
36339 H 64.25712876068836 108.34216020316461 92.90829900417197 H 0.0 **** 0.06
36340 H 64.53446237680801 108.99890106794417 94.53944149198944 H 0.0 **** 0.06
36341 C 82.88300065172149 26.7548031472424 62.885375624974785 C 0.0 **** -0.24
36342 H 82.48400519234863 25.900981619111803 62.33838282936071 H 0.0 **** 0.06
36343 H 83.03143867576458 27.588749174711836 62.19831668948737 H 0.0 **** 0.06
36344 H 83.83562288618612 26.48285016959929 63.339310816477195 H 0.0 **** 0.06
36345 H 82.17885331215297 27.047445888887438 63.66550803721792 H 0.0 **** 0.06
36346 C 86.82322541060296 41.002640184424905 15.744095762618542 C 0.0 **** -0.24
36347 H 87.58851320388376 40.72506916132269 15.01930982972992 H 0.0 **** 0.06
36348 H 86.30589268947442 41.898482661441676 15.401402286127166 H 0.0 **** 0.06
36349 H 87.29160529122326 41.19911128125365 16.70833023023141 H 0.0 **** 0.06
36350 H 86.10741135168504 40.18661415766533 15.847626115426891 H 0.0 **** 0.06
36351 C 90.67677995890338 63.80032423350117 67.4010246633205 C 0.0 **** -0.24
36352 H 91.45755898190956 63.385466936255824 68.03740992545627 H 0.0 **** 0.06
36353 H 91.0730088704772 63.963326905191295 66.39875398580742 H 0.0 **** 0.06
36354 H 90.33567380682369 64.74924668482876 67.81679333098253 H 0.0 **** 0.06
36355 H 89.83980568940314 63.10310872215055 67.3520513896951 H 0.0 **** 0.06
36356 C 34.52169961764696 14.970663821495236 44.573679374062415 C 0.0 **** -0.24
36357 H 34.34080480032622 16.017801429370934 44.33007385234483 H 0.0 **** 0.06
36358 H 33.84360732807456 14.341437146707108 43.997084737356296 H 0.0 **** 0.06
36359 H 34.349930678755115 14.811516846501604 45.63839737502583 H 0.0 **** 0.06
36360 H 35.55292017932503 14.7142526456974 44.329660472518036 H 0.0 **** 0.06
36361 C 50.92254449051501 60.10744409971028 109.64834008497006 C 0.0 **** -0.24
36362 H 51.449730534106244 59.70367031007369 108.78390596997437 H 0.0 **** 0.06
36363 H 50.64064683457099 61.14177127167122 109.45063636993106 H 0.0 **** 0.06
36364 H 51.57393357143018 60.06898181303883 110.52197198438076 H 0.0 **** 0.06
36365 H 50.02725814923454 59.51560572378418 109.8368776095793 H 0.0 **** 0.06
36366 C 106.32581673319243 76.22377991718595 100.8118043695787 C 0.0 **** -0.24
36367 H 105.47939234737635 76.73454606318892 101.26958966171759 H 0.0 **** 0.06
36368 H 105.96126719055985 75.42464822518568 100.16472786109053 H 0.0 **** 0.06
36369 H 106.95959066347078 75.80005707123897 101.59042061284991 H 0.0 **** 0.06
36370 H 106.90267794551895 76.93538215427232 100.22056908646567 H 0.0 **** 0.06
36371 C 16.730494280497396 78.71602411915232 31.86198950748343 C 0.0 **** -0.24
36372 H 16.17024705259803 79.55396415882346 31.447920390405102 H 0.0 **** 0.06
36373 H 16.387219422639134 77.78723293656688 31.40440986223058 H 0.0 **** 0.06
36374 H 16.571013891523194 78.67131140604751 32.939973078762534 H 0.0 **** 0.06
36375 H 17.792222284067407 78.85213570870526 31.657673612326917 H 0.0 **** 0.06
36376 C 8.2826115376498 103.15643246930838 38.73686819153352 C 0.0 **** -0.24
36377 H 8.838276401719568 102.88729422963648 37.83895958527387 H 0.0 **** 0.06
36378 H 7.705892578576311 102.29674506517765 39.07876958725592 H 0.0 **** 0.06
36379 H 7.606788252118307 103.9811419358264 38.511517592705104 H 0.0 **** 0.06
36380 H 8.979488918185197 103.46054864659287 39.518226000899574 H 0.0 **** 0.06
36381 C 17.661050393465022 24.63798662305354 58.50993265815953 C 0.0 **** -0.24
36382 H 18.73879975998796 24.71966088415676 58.648201639184094 H 0.0 **** 0.06
36383 H 17.242638062522815 25.627779304337565 58.32302256967279 H 0.0 **** 0.06
36384 H 17.210166723736418 24.21578063366361 59.40869559260341 H 0.0 **** 0.06
36385 H 17.452597027613013 23.988725670056112 57.659810831177936 H 0.0 **** 0.06
36386 C 82.2174449056707 24.45914379610454 52.92023100247843 C 0.0 **** -0.24
36387 H 83.12687886156185 24.85964031217219 53.367167360241694 H 0.0 **** 0.06
36388 H 82.40308246587296 24.220136641982265 51.87228439480657 H 0.0 **** 0.06
36389 H 81.4212441759668 25.2008433188727 52.98737242648497 H 0.0 **** 0.06
36390 H 81.9187773411943 23.55548562427603 53.451922967832616 H 0.0 **** 0.06
36391 C 28.02549492468303 53.88785275832031 62.9261896472527 C 0.0 **** -0.24
36392 H 26.9511430920748 53.722265900450715 62.84632813996393 H 0.0 **** 0.06
36393 H 28.251031427296027 54.34236967099134 63.89195229759565 H 0.0 **** 0.06
36394 H 28.350759885026136 54.5528691619578 62.126654419799905 H 0.0 **** 0.06
36395 H 28.54689819680938 52.93427404895461 62.84188654170862 H 0.0 **** 0.06
36396 C 106.90083553052284 20.010410101320815 108.60427795159347 C 0.0 **** -0.24
36397 H 106.19896222680285 19.749557535440943 109.39761182458352 H 0.0 **** 0.06
36398 H 107.9159924070583 20.00087708245502 109.00063051007486 H 0.0 **** 0.06
36399 H 106.66707235362315 21.005948855043016 108.22595779977756 H 0.0 **** 0.06
36400 H 106.82003847742209 19.285629267665684 107.79470938276785 H 0.0 **** 0.06
36401 C 79.65849433253197 37.46336666552942 76.4634180759819 C 0.0 **** -0.24
36402 H 79.864290398413 38.478610545156826 76.80140259614694 H 0.0 **** 0.06
36403 H 78.66252854163577 37.16500019875397 76.79464527343038 H 0.0 **** 0.06
36404 H 80.39989908920822 36.78284251335572 76.88275639265493 H 0.0 **** 0.06
36405 H 79.70529404105935 37.4260515328221 75.3753293522849 H 0.0 **** 0.06
36406 C 91.73159983474606 17.33171194791187 86.51070537897976 C 0.0 **** -0.24
36407 H 91.85146733716712 18.400468967787646 86.68845506604538 H 0.0 **** 0.06
36408 H 90.69230969504592 17.05076579997575 86.6791243949387 H 0.0 **** 0.06
36409 H 92.37549566583655 16.776389865579063 87.19268871786522 H 0.0 **** 0.06
36410 H 92.0085964669594 17.101758159906666 85.48191004022317 H 0.0 **** 0.06
36411 C 4.0053421844744435 17.814083880640283 109.43514079000697 C 0.0 **** -0.24
36412 H 3.390362236419719 18.380835073371486 110.13456877497897 H 0.0 **** 0.06
36413 H 3.7237530241567924 16.761755709345834 109.47622253973938 H 0.0 **** 0.06
36414 H 5.054765679314272 17.921418645679864 109.70627584692996 H 0.0 **** 0.06
36415 H 3.8497985116437548 18.19314576787292 108.42525566508628 H 0.0 **** 0.06
36416 C 99.79377971297043 105.09875360128008 11.845411303788637 C 0.0 **** -0.24
36417 H 98.74189080290142 105.36585586021117 11.752703425094523 H 0.0 **** 0.06
36418 H 99.87751832459276 104.07688257889382 12.215057321839424 H 0.0 **** 0.06
36419 H 100.28065411057815 105.77884797675802 12.544443991990534 H 0.0 **** 0.06
36420 H 100.27542448033569 105.17309774802708 10.87076523234748 H 0.0 **** 0.06
36421 C 26.112739334587104 102.09612630707574 87.50891970054387 C 0.0 **** -0.24
36422 H 26.444834227821275 101.30003046684357 86.84312386961147 H 0.0 **** 0.06
36423 H 26.828004263034245 102.91944058861213 87.476974015317 H 0.0 **** 0.06
36424 H 26.045371866344993 101.71307214583013 88.52744112561257 H 0.0 **** 0.06
36425 H 25.133418980029447 102.45290149034193 87.18895583496624 H 0.0 **** 0.06
36426 C 30.806843774182738 101.83434250146648 74.68525782597175 C 0.0 **** -0.24
36427 H 30.375387240988914 102.8162317910469 74.48734753951436 H 0.0 **** 0.06
36428 H 31.24084288359151 101.43835699113912 73.76707484512252 H 0.0 **** 0.06
36429 H 30.027338982661462 101.1599663485385 75.04020969761933 H 0.0 **** 0.06
36430 H 31.58246384572095 101.92549764471356 75.44439870891236 H 0.0 **** 0.06
36431 C 31.037574851794183 4.988881138969333 62.17676316597806 C 0.0 **** -0.24
36432 H 30.987587880456445 4.011648295972037 61.69631752335323 H 0.0 **** 0.06
36433 H 30.037050093805156 5.2924982289033835 62.48623311362542 H 0.0 **** 0.06
36434 H 31.4379518207206 5.719043250782846 61.473297235689756 H 0.0 **** 0.06
36435 H 31.686585436660174 4.932071291982112 63.0503881494181 H 0.0 **** 0.06
36436 C 104.63888759164635 43.36387776021126 60.43579495576941 C 0.0 **** -0.24
36437 H 103.81209764823038 43.734789459148814 59.829579927454574 H 0.0 **** 0.06
36438 H 104.65225824806492 42.274440834543036 60.40182220918871 H 0.0 **** 0.06
36439 H 104.50985244968047 43.69455107371007 61.46664938364722 H 0.0 **** 0.06
36440 H 105.57936333060161 43.75247194856526 60.04388970876164 H 0.0 **** 0.06
36441 C 67.21011559618194 7.341632169559469 40.29199628004744 C 0.0 **** -0.24
36442 H 66.22641186626191 7.733828615568061 40.55193030867474 H 0.0 **** 0.06
36443 H 67.88165616542335 8.168883223698227 40.06316956075102 H 0.0 **** 0.06
36444 H 67.12295933620277 6.691412651925029 39.42216006476269 H 0.0 **** 0.06
36445 H 67.6068297199377 6.77231486053819 41.13251542386297 H 0.0 **** 0.06
36446 C 64.97945210162823 32.618636270105924 90.94481068822364 C 0.0 **** -0.24
36447 H 64.83052751270512 32.371053423540786 89.89338690297558 H 0.0 **** 0.06
36448 H 64.01469607427161 32.646851932619455 91.45138291311389 H 0.0 **** 0.06
36449 H 65.46205530113711 33.592986877139936 91.02368272032203 H 0.0 **** 0.06
36450 H 65.61132994441148 31.861214453547746 91.4092365088319 H 0.0 **** 0.06
36451 C 72.62648778731284 31.356932870010212 84.63785787972215 C 0.0 **** -0.24
36452 H 72.67780026099982 30.949593188935694 85.6474747056022 H 0.0 **** 0.06
36453 H 71.61821130630008 31.223535329910845 84.24420774320501 H 0.0 **** 0.06
36454 H 73.33822851113644 30.834974441819497 83.99856041087125 H 0.0 **** 0.06
36455 H 72.86966046887426 32.419330539036395 84.66249500566624 H 0.0 **** 0.06
36456 C 18.09482306862708 29.820204639251955 107.86545673495141 C 0.0 **** -0.24
36457 H 17.248178794666444 30.025920917116878 108.52116632566708 H 0.0 **** 0.06
36458 H 18.013710736157776 30.43125761378454 106.96638844333961 H 0.0 **** 0.06
36459 H 18.092003586346948 28.765051061828075 107.59051537220563 H 0.0 **** 0.06
36460 H 19.02189620013283 30.058830072474706 108.38504980344504 H 0.0 **** 0.06
36461 C 107.6776331489155 13.516915821657165 14.89225178611889 C 0.0 **** -0.24
36462 H 107.94150197649543 14.458016350633557 14.408912558699825 H 0.0 **** 0.06
36463 H 108.57554632777413 13.057308571412307 15.305223730722588 H 0.0 **** 0.06
36464 H 107.22799553025848 12.846286813512563 14.160031549333794 H 0.0 **** 0.06
36465 H 106.96494215738775 13.709162126033107 15.694677903983049 H 0.0 **** 0.06
36466 C 1.8288207210202643 105.10380399952817 43.05906968643353 C 0.0 **** -0.24
36467 H 2.068247578552345 104.63740065079014 44.014650882587944 H 0.0 **** 0.06
36468 H 0.8259017182928972 104.80583255223976 42.75022616837532 H 0.0 **** 0.06
36469 H 2.550478281917549 104.78317206996451 42.307799257584975 H 0.0 **** 0.06
36470 H 1.870126575059004 106.18787951322386 43.16267864647648 H 0.0 **** 0.06
36471 C 74.15101331267127 73.6742230478688 82.04020421768476 C 0.0 **** -0.24
36472 H 73.23256317745764 73.71266733685522 81.45505288360192 H 0.0 **** 0.06
36473 H 74.41506614916395 74.68080198768143 82.36798735192 H 0.0 **** 0.06
36474 H 74.95649254724384 73.26912331042968 81.42659994532539 H 0.0 **** 0.06
36475 H 74.0014592519218 73.03602730020813 82.91035158320358 H 0.0 **** 0.06
36476 C 99.72116115115392 102.71981692265796 32.580710048911016 C 0.0 **** -0.24
36477 H 98.81022318111309 103.31388216541733 32.512079151043054 H 0.0 **** 0.06
36478 H 100.58913630914321 103.3772596943864 32.52610342388218 H 0.0 **** 0.06
36479 H 99.75300776497284 102.0071047210436 31.75667980831014 H 0.0 **** 0.06
36480 H 99.73301855173747 102.18059849425396 33.52849941135986 H 0.0 **** 0.06
36481 C 29.66738540319369 77.69210838324318 63.24791449777973 C 0.0 **** -0.24
36482 H 30.016526402405304 76.68946237087891 63.00361712393874 H 0.0 **** 0.06
36483 H 29.998257788239926 78.3903396255962 62.4791067668728 H 0.0 **** 0.06
36484 H 30.07421520180759 77.99356489203586 64.21261868387361 H 0.0 **** 0.06
36485 H 28.577628268543776 77.69436870952251 63.29646449477292 H 0.0 **** 0.06
36486 C 64.38721570716254 2.587188651335822 59.482665453414484 C 0.0 **** -0.24
36487 H 63.945429091725174 3.143146728872921 60.309140434989914 H 0.0 **** 0.06
36488 H 65.06090429110242 1.826093531740696 59.87748653693444 H 0.0 **** 0.06
36489 H 64.94579558929877 3.2704981440533487 58.84373483385065 H 0.0 **** 0.06
36490 H 63.598149251047204 2.108705569088528 58.90292691078464 H 0.0 **** 0.06
36491 C 60.60675436317484 42.63851597214626 89.66461406850523 C 0.0 **** -0.24
36492 H 59.61468336279006 42.192854100294284 89.73637304864413 H 0.0 **** 0.06
36493 H 61.2165409225381 42.05892222746002 88.97044027721564 H 0.0 **** 0.06
36494 H 61.07655020996749 42.64036745963318 90.64729310002782 H 0.0 **** 0.06
36495 H 60.51819942018504 43.66313444800144 89.30181275443945 H 0.0 **** 0.06
36496 C 19.573208135840403 106.40262216093357 11.510333493971174 C 0.0 **** -0.24
36497 H 19.00566470491718 105.52294816797868 11.205427128015117 H 0.0 **** 0.06
36498 H 19.003433758582062 107.30144352580277 11.272587637475965 H 0.0 **** 0.06
36499 H 20.5240077586283 106.42335102644029 10.978278896653052 H 0.0 **** 0.06
36500 H 19.757222843232697 106.362458445525 12.583412306737983 H 0.0 **** 0.06
36501 C 17.21463239890494 51.946521348781076 52.602795655932084 C 0.0 **** -0.24
36502 H 17.26933025027091 51.120579294133876 53.31146028942567 H 0.0 **** 0.06
36503 H 17.574754078263766 52.85789780473058 53.07955769086246 H 0.0 **** 0.06
36504 H 16.18138653013824 52.085045993613335 52.28574268035052 H 0.0 **** 0.06
36505 H 17.8341130291808 51.72181255650606 51.73385060578869 H 0.0 **** 0.06
36506 C 71.14276685969304 39.94985715237379 73.28161666312104 C 0.0 **** -0.24
36507 H 72.07761632145332 40.42502005321084 73.57926989134177 H 0.0 **** 0.06
36508 H 70.38999443598266 40.71520242105696 73.0933986600526 H 0.0 **** 0.06
36509 H 70.80027141484456 39.29209503571925 74.08064708499542 H 0.0 **** 0.06
36510 H 71.30417052151799 39.366847367824775 72.37514098331 H 0.0 **** 0.06
36511 C 48.5886269883195 64.84307846679212 37.45281485584716 C 0.0 **** -0.24
36512 H 49.2258689548309 64.7410970547503 38.33169211674915 H 0.0 **** 0.06
36513 H 48.75401702553963 65.81805089697048 36.995527665802506 H 0.0 **** 0.06
36514 H 47.54357203858464 64.75387490354075 37.75002458755694 H 0.0 **** 0.06
36515 H 48.83012251123391 64.05884269391987 36.735999782173984 H 0.0 **** 0.06
36516 C 94.6566636082846 65.9516898133437 33.008882946331504 C 0.0 **** -0.24
36517 H 95.0599994570612 66.60305519411199 33.7849506770663 H 0.0 **** 0.06
36518 H 95.34694325625154 65.12723325171147 32.83204661986742 H 0.0 **** 0.06
36519 H 94.52647671205355 66.52190890031468 32.08937586587673 H 0.0 **** 0.06
36520 H 93.6930292695632 65.55723258830687 33.330839585688274 H 0.0 **** 0.06
36521 C 89.34136789924018 103.72006614613636 78.39467392195175 C 0.0 **** -0.24
36522 H 89.69695418320592 103.48290253800252 79.39705135413278 H 0.0 **** 0.06
36523 H 90.15030072028189 104.17360619752229 77.82087700185602 H 0.0 **** 0.06
36524 H 88.5077968435297 104.41841156012501 78.46101885855062 H 0.0 **** 0.06
36525 H 89.01267276431828 102.80579316162131 77.90059888008665 H 0.0 **** 0.06
36526 C 85.5467665047491 101.51093535074256 42.65898836566899 C 0.0 **** -0.24
36527 H 86.20739144314204 101.12258175441833 43.43375728413787 H 0.0 **** 0.06
36528 H 85.87325010426241 102.51007775876741 42.371877586248786 H 0.0 **** 0.06
36529 H 84.52724995034025 101.55611999976617 43.04063352101247 H 0.0 **** 0.06
36530 H 85.5800570988975 100.853128113869 41.79061166348549 H 0.0 **** 0.06
36531 C 91.34159384216758 68.1714755402013 106.16721651696551 C 0.0 **** -0.24
36532 H 91.24609668105919 69.15946380662149 105.71625284340436 H 0.0 **** 0.06
36533 H 91.82304505943276 68.26277088107685 107.14160180576408 H 0.0 **** 0.06
36534 H 91.94554626258461 67.53474758436016 105.52142036319336 H 0.0 **** 0.06
36535 H 90.35274181137902 67.73162227933352 106.29035635393836 H 0.0 **** 0.06
36536 C 75.34075860863396 109.85635706055683 46.67496516888235 C 0.0 **** -0.24
36537 H 74.33811762899524 109.79214918127397 46.25208557275589 H 0.0 **** 0.06
36538 H 75.95801729260018 109.05497758613271 46.269646335655686 H 0.0 **** 0.06
36539 H 75.28391990065415 109.75861747298055 47.75903576647286 H 0.0 **** 0.06
36540 H 75.78062346165586 110.82012931259867 46.41959355453798 H 0.0 **** 0.06
36541 C 83.68643851497244 38.60303974066477 94.34190627984941 C 0.0 **** -0.24
36542 H 83.05400944079484 37.71787442554063 94.28820827615937 H 0.0 **** 0.06
36543 H 84.73394231646581 38.30062329839609 94.3629981382926 H 0.0 **** 0.06
36544 H 83.45109955792658 39.163411079443904 95.2468528424319 H 0.0 **** 0.06
36545 H 83.50770150576372 39.231213848208995 93.46929405275898 H 0.0 **** 0.06
36546 C 28.695476347305004 95.05783532026774 40.39407057042445 C 0.0 **** -0.24
36547 H 28.292846288314735 94.38445501981087 39.63733498696337 H 0.0 **** 0.06
36548 H 29.555158406691305 95.5906230625321 39.985465872338125 H 0.0 **** 0.06
36549 H 29.005087216377603 94.48217442003798 41.26568017995345 H 0.0 **** 0.06
36550 H 27.928757614273394 95.77587394079848 40.68612482448418 H 0.0 **** 0.06
36551 C 25.372919997261874 85.20327192351107 30.058760481346013 C 0.0 **** -0.24
36552 H 25.962114625136905 85.62243475103531 29.242786845525416 H 0.0 **** 0.06
36553 H 25.33925202316786 85.9138566425878 30.885284293335417 H 0.0 **** 0.06
36554 H 25.830889261216072 84.27392192194338 30.39666347728661 H 0.0 **** 0.06
36555 H 24.360193292488987 85.00336304965322 29.70989552995306 H 0.0 **** 0.06
36556 C 46.96779594267366 82.73490709924091 64.1563103828401 C 0.0 **** -0.24
36557 H 46.32157302360514 82.31271628771216 63.387081832846434 H 0.0 **** 0.06
36558 H 46.35731826800736 83.0968144119085 64.984456449123 H 0.0 **** 0.06
36559 H 47.53883249697145 83.56289383454003 63.736572443595406 H 0.0 **** 0.06
36560 H 47.652193478927245 81.96776638030911 64.51684859258387 H 0.0 **** 0.06
36561 C 10.839656287587175 82.7358145626105 1.5173096421263663 C 0.0 **** -0.24
36562 H 11.65346686607235 82.07203349806731 1.2268002075649687 H 0.0 **** 0.06
36563 H 10.273108972182982 83.02506926376415 0.6317580476835687 H 0.0 **** 0.06
36564 H 11.249821384274838 83.62695331218895 1.9925422795095784 H 0.0 **** 0.06
36565 H 10.183395210673638 82.21991116465422 2.217770764122818 H 0.0 **** 0.06
36566 C 81.79699095731189 21.300182998318206 21.712838879530285 C 0.0 **** -0.24
36567 H 81.4607661214074 21.641616098570125 22.691657049447 H 0.0 **** 0.06
36568 H 82.86050826253847 21.06372088555929 21.756740851380677 H 0.0 **** 0.06
36569 H 81.62808482861226 22.085136587002438 20.976411517198784 H 0.0 **** 0.06
36570 H 81.2373197939466 20.408455254133457 21.427594011026727 H 0.0 **** 0.06
36571 C 39.66108282567268 50.12008423107602 40.863504220571016 C 0.0 **** -0.24
36572 H 39.110327666361286 49.18641103148338 40.98517563069626 H 0.0 **** 0.06
36573 H 40.73126669844521 49.92266240862075 40.93979926740667 H 0.0 **** 0.06
36574 H 39.3632554112599 50.821206591494715 41.64334459842311 H 0.0 **** 0.06
36575 H 39.438997269558286 50.547100613486 39.88553502575496 H 0.0 **** 0.06
36576 C 83.18649165903611 53.12950223795018 110.75782307852639 C 0.0 **** -0.24
36577 H 82.72922114840634 53.63758385227812 109.90902306375568 H 0.0 **** 0.06
36578 H 84.02349226899389 52.52301668316925 110.41017233347158 H 0.0 **** 0.06
36579 H 82.44706910666304 52.48824324489248 111.23776779916204 H 0.0 **** 0.06
36580 H 83.5462742217978 53.8691379921434 111.47333353155665 H 0.0 **** 0.06
36581 C 20.78577649986856 95.36723504965721 85.63312989636307 C 0.0 **** -0.24
36582 H 20.569842879795516 94.31565136282347 85.44366442280239 H 0.0 **** 0.06
36583 H 21.563673757380826 95.70670693547156 84.95022773806511 H 0.0 **** 0.06
36584 H 21.12553493112935 95.48836452775242 86.66131108058403 H 0.0 **** 0.06
36585 H 19.882088666847395 95.95726097830351 85.4777868033575 H 0.0 **** 0.06
36586 C 10.693649534764802 53.59914886965021 40.03552964677942 C 0.0 **** -0.24
36587 H 11.62995824906136 53.98632293786784 39.6339627772494 H 0.0 **** 0.06
36588 H 10.899072451588893 52.73140038800429 40.66244250740656 H 0.0 **** 0.06
36589 H 10.039144133045056 53.30856498110819 39.21417261022175 H 0.0 **** 0.06
36590 H 10.207821786927411 54.371543901085715 40.63225829286507 H 0.0 **** 0.06
36591 C 35.61986460222636 26.231629632245557 77.42305360993987 C 0.0 **** -0.24
36592 H 36.229212223702945 26.78241188867449 78.13963934585371 H 0.0 **** 0.06
36593 H 35.45304237651166 26.847713076075735 76.53878536546961 H 0.0 **** 0.06
36594 H 34.66239056927003 25.979574163394943 77.87731364023756 H 0.0 **** 0.06
36595 H 36.1381463961967 25.316305370804287 77.13520074799203 H 0.0 **** 0.06
36596 C 24.410196091809212 34.70421810539088 48.92912422419303 C 0.0 **** -0.24
36597 H 23.945002084890433 34.72586404454253 49.91526355688638 H 0.0 **** 0.06
36598 H 23.84245721704633 35.33634127295065 48.24595248190651 H 0.0 **** 0.06
36599 H 24.42047985870923 33.6805785588666 48.554551051013576 H 0.0 **** 0.06
36600 H 25.43311219791761 35.074733303885665 49.00231509959057 H 0.0 **** 0.06
36601 C 41.730032366945125 97.97635408859065 12.252665713890224 C 0.0 **** -0.24
36602 H 41.000613908936145 97.7008849291119 13.015014215374265 H 0.0 **** 0.06
36603 H 42.65868653315192 97.43278308244406 12.426109436795144 H 0.0 **** 0.06
36604 H 41.92139975071751 99.04786035483475 12.303954515496244 H 0.0 **** 0.06
36605 H 41.33845416663462 97.72355265170594 11.267298430706632 H 0.0 **** 0.06
36606 C 66.83844262055516 17.42541578640832 30.738666560889882 C 0.0 **** -0.24
36607 H 66.87061696382438 17.04103976408441 29.718688782318537 H 0.0 **** 0.06
36608 H 66.08389953464416 16.88338478351563 31.307771823956635 H 0.0 **** 0.06
36609 H 66.58693430638692 18.48598377401996 30.71854538786922 H 0.0 **** 0.06
36610 H 67.81284775527996 17.292177083062462 31.20703899510056 H 0.0 **** 0.06
36611 C 97.65931997997276 93.10470946381739 83.02791826863455 C 0.0 **** -0.24
36612 H 96.81139246011543 92.51983871000667 83.38338812609055 H 0.0 **** 0.06
36613 H 97.29954675157809 93.91742086067386 82.39496624428466 H 0.0 **** 0.06
36614 H 98.32643183899353 92.46448554442645 82.45237962075555 H 0.0 **** 0.06
36615 H 98.19748638968456 93.51876709589564 83.88036586586179 H 0.0 **** 0.06
36616 C 39.87107035317479 72.43640063369111 49.45460227165381 C 0.0 **** -0.24
36617 H 39.27802487663169 71.89087362651918 48.719913134901844 H 0.0 **** 0.06
36618 H 39.68070542503523 73.50438652021546 49.3533006357614 H 0.0 **** 0.06
36619 H 40.93003321640293 72.23725771209473 49.28575750098031 H 0.0 **** 0.06
36620 H 39.59495649459549 72.11043560689939 50.45705707625174 H 0.0 **** 0.06
36621 C 36.330302075642976 88.27753002023803 40.719148387118366 C 0.0 **** -0.24
36622 H 36.132153476236226 87.21787975558163 40.881694390095106 H 0.0 **** 0.06
36623 H 36.09560970721407 88.83442450680798 41.62731293660494 H 0.0 **** 0.06
36624 H 35.710319837668635 88.64072961087561 39.89997760209337 H 0.0 **** 0.06
36625 H 37.38170149066855 88.4158052624258 40.46876285121084 H 0.0 **** 0.06
36626 C 76.20751948332565 36.68332338808352 56.59892165487932 C 0.0 **** -0.24
36627 H 76.82020371771284 36.755737077493166 55.700204775586855 H 0.0 **** 0.06
36628 H 76.15107823744165 37.6607477167322 57.07878813127925 H 0.0 **** 0.06
36629 H 76.65455206015031 35.96534752049439 57.28583810853834 H 0.0 **** 0.06
36630 H 75.20460382085622 36.352817630732446 56.328847876714434 H 0.0 **** 0.06
36631 C 25.0615511398736 62.16645462184846 59.040898266552745 C 0.0 **** -0.24
36632 H 24.684120120686856 62.12809728308636 58.018839416200876 H 0.0 **** 0.06
36633 H 25.172016785501 63.207140774964515 59.34752419714641 H 0.0 **** 0.06
36634 H 26.029213027570606 61.66702214121335 59.09035943840615 H 0.0 **** 0.06
36635 H 24.359474434314606 61.66377593626795 59.70665137895264 H 0.0 **** 0.06
36636 C 51.09877689689369 95.8031479662615 63.45711386460523 C 0.0 **** -0.24
36637 H 50.91628343596535 96.23162911039445 62.47188812862498 H 0.0 **** 0.06
36638 H 50.17328222785596 95.37424952083678 63.84328293277515 H 0.0 **** 0.06
36639 H 51.44754228589419 96.5832797283679 64.1334494672195 H 0.0 **** 0.06
36640 H 51.85562044339068 95.02303687480398 63.379407823866686 H 0.0 **** 0.06
36641 C 44.720619440735874 1.980914709880543 105.4114171825234 C 0.0 **** -0.24
36642 H 44.78911259113531 1.7324339547765089 106.47081643095021 H 0.0 **** 0.06
36643 H 43.700046600727916 2.283236909593718 105.17452027010029 H 0.0 **** 0.06
36644 H 44.989275244077135 1.108704747297538 104.81618233101227 H 0.0 **** 0.06
36645 H 45.403609926989475 2.8002760576531234 105.18634668576055 H 0.0 **** 0.06
36646 C 27.855109586734123 42.03123373747741 73.73590650956663 C 0.0 **** -0.24
36647 H 28.21829800671425 41.134699867922166 73.23284492620087 H 0.0 **** 0.06
36648 H 27.40335401438628 41.75426356894218 74.68907135445342 H 0.0 **** 0.06
36649 H 27.11034424891342 42.52186745314992 73.110110355958 H 0.0 **** 0.06
36650 H 28.687819424222475 42.71184827745668 73.91232331523273 H 0.0 **** 0.06
36651 C 47.607821120677585 88.9886523584453 41.39030327415125 C 0.0 **** -0.24
36652 H 48.66065641000813 89.05047805915866 41.6666439977478 H 0.0 **** 0.06
36653 H 47.02163007045456 88.69420861033679 42.26086611987765 H 0.0 **** 0.06
36654 H 47.483341614806704 88.24947068988186 40.599341192090975 H 0.0 **** 0.06
36655 H 47.26840017624244 89.96179318881497 41.03565545925851 H 0.0 **** 0.06
36656 C 32.09919061777018 100.74979757450097 37.259468100465824 C 0.0 **** -0.24
36657 H 33.10167886376976 100.50978032753773 36.90605935875499 H 0.0 **** 0.06
36658 H 32.15215829028038 101.57306007004729 37.97168927886753 H 0.0 **** 0.06
36659 H 31.667032707172666 99.87455967057045 37.7458619202053 H 0.0 **** 0.06
36660 H 31.475884342798878 101.03953862369565 36.41329721817388 H 0.0 **** 0.06
36661 C 14.78772957660891 8.735971734187189 82.99220309878697 C 0.0 **** -0.24
36662 H 14.789486721893326 8.709154904085992 84.08086805725716 H 0.0 **** 0.06
36663 H 15.797679497516924 8.93364004355871 82.63195573088566 H 0.0 **** 0.06
36664 H 14.118305651682377 9.524559862975778 82.64917819926367 H 0.0 **** 0.06
36665 H 14.445212871050543 7.776354727051228 82.60510332598524 H 0.0 **** 0.06
36666 C 74.49901584251651 8.288970182168129 90.18064540720778 C 0.0 **** -0.24
36667 H 74.92058737362322 9.287323165913506 90.06138718524545 H 0.0 **** 0.06
36668 H 74.40373392903524 7.816760427743304 89.20196817470185 H 0.0 **** 0.06
36669 H 73.51699772071868 8.362910992705025 90.64606437253127 H 0.0 **** 0.06
36670 H 75.15612374893942 7.689545966845159 90.81058074670352 H 0.0 **** 0.06
36671 C 49.769322409026216 4.23079256893908 23.01511742031991 C 0.0 **** -0.24
36672 H 49.404722173605904 5.242725914470485 23.19196568892704 H 0.0 **** 0.06
36673 H 50.79906105964366 4.150600843772521 23.360847431874475 H 0.0 **** 0.06
36674 H 49.724906977135106 4.01109385348532 21.947669737680968 H 0.0 **** 0.06
36675 H 49.14584208462729 3.520560217596582 23.55822056410821 H 0.0 **** 0.06
36676 C 85.52937047491879 47.97665191796886 105.16057521097326 C 0.0 **** -0.24
36677 H 86.57757518071762 48.15073187760869 105.40418516205327 H 0.0 **** 0.06
36678 H 85.15730852482292 48.79794843963199 104.54774678359394 H 0.0 **** 0.06
36679 H 84.94781499918622 47.91580082908919 106.0805796219584 H 0.0 **** 0.06
36680 H 85.43574326343484 47.040739619998575 104.60939568724086 H 0.0 **** 0.06
36681 C 1.2242307582392868 46.23003882587534 8.21351073448534 C 0.0 **** -0.24
36682 H 2.132643434711298 45.71309400293865 8.521528837431191 H 0.0 **** 0.06
36683 H 1.0784498518970622 47.11084082459039 8.839423296112813 H 0.0 **** 0.06
36684 H 0.37133999512144555 45.561470471517964 8.322796348355965 H 0.0 **** 0.06
36685 H 1.3163005213243935 46.53599759967777 7.170700496928646 H 0.0 **** 0.06
36686 C 81.68699883904235 29.453423770570993 102.74180993162696 C 0.0 **** -0.24
36687 H 81.22865511702108 28.792892520721978 102.00626306200641 H 0.0 **** 0.06
36688 H 80.9993326571188 30.264224774680855 102.98074642761597 H 0.0 **** 0.06
36689 H 82.6093551880984 29.867211554436267 102.3329221477976 H 0.0 **** 0.06
36690 H 81.91252781397951 28.88879779164978 103.64690824435218 H 0.0 **** 0.06
36691 C 78.53692886665755 85.7086361672462 98.92110571582705 C 0.0 **** -0.24
36692 H 79.41268611048002 86.02470291700422 98.35499905421773 H 0.0 **** 0.06
36693 H 78.7203615871789 84.72697401417167 99.35735514204276 H 0.0 **** 0.06
36694 H 77.67446847218923 85.65629767240475 98.25712043805697 H 0.0 **** 0.06
36695 H 78.34021282452113 86.42951788237903 99.71550558397792 H 0.0 **** 0.06
36696 C 70.40742933378516 71.5087836851801 31.471533626340488 C 0.0 **** -0.24
36697 H 70.9675276026353 70.60297964863088 31.240696720879725 H 0.0 **** 0.06
36698 H 69.4694293821104 71.50749004684724 30.916494763331684 H 0.0 **** 0.06
36699 H 70.99607115370898 72.38142136601266 31.18817514857136 H 0.0 **** 0.06
36700 H 70.19797898899685 71.54414342152074 32.540041890185535 H 0.0 **** 0.06
36701 C 76.8004862794494 46.62201595787543 68.71358689077715 C 0.0 **** -0.24
36702 H 77.05836807706609 46.23961757029772 69.70183243044823 H 0.0 **** 0.06
36703 H 75.71959355211172 46.75041763281932 68.64520031650756 H 0.0 **** 0.06
36704 H 77.13171255433197 45.91470052562643 67.95315098008473 H 0.0 **** 0.06
36705 H 77.29194195198906 47.581244128848454 68.55672301102175 H 0.0 **** 0.06
36706 C 21.828845262902718 43.95001182740134 73.1967373535605 C 0.0 **** -0.24
36707 H 21.250602965686056 44.24453128885551 74.07275326939295 H 0.0 **** 0.06
36708 H 21.2972622580983 43.16521671453643 72.65780051723127 H 0.0 **** 0.06
36709 H 22.802979457331617 43.576942453693846 73.51420638474747 H 0.0 **** 0.06
36710 H 21.964209413980882 44.811723268478886 72.54398501687737 H 0.0 **** 0.06
36711 C 47.783288417628 35.387171538385985 89.10343836484446 C 0.0 **** -0.24
36712 H 48.54729452974928 35.36450768478596 89.88054501307857 H 0.0 **** 0.06
36713 H 48.217150357078054 35.05844025253742 88.15891504211194 H 0.0 **** 0.06
36714 H 47.40602977860152 36.403866719926896 88.99512151503728 H 0.0 **** 0.06
36715 H 46.96499811108549 34.72264446616202 89.37932862649907 H 0.0 **** 0.06
36716 C 40.97835236094721 79.42262803955177 31.320868373435786 C 0.0 **** -0.24
36717 H 41.53558669955504 79.37619599840946 30.385033608734517 H 0.0 **** 0.06
36718 H 41.487375920786036 80.09190497999813 32.014903787108835 H 0.0 **** 0.06
36719 H 40.91747651519253 78.42482223791922 31.756254965665562 H 0.0 **** 0.06
36720 H 39.97337296336423 79.79624249668527 31.127122845297123 H 0.0 **** 0.06
36721 C 109.82733919582674 75.39718540149735 100.72039591281319 C 0.0 **** -0.24
36722 H 109.80595842322475 76.2645524944885 101.38117271780524 H 0.0 **** 0.06
36723 H 110.38330678790543 75.64404537737786 99.81651269720004 H 0.0 **** 0.06
36724 H 108.80805240620978 75.11720992084582 100.45614252072656 H 0.0 **** 0.06
36725 H 110.31257703815376 74.5645144786472 101.2306215039903 H 0.0 **** 0.06
36726 C 58.46498533665286 9.697036225965633 95.10367709592752 C 0.0 **** -0.24
36727 H 59.128028835844134 10.138177397549327 95.84805168437167 H 0.0 **** 0.06
36728 H 57.454515239297535 10.081362820248557 95.24544105761011 H 0.0 **** 0.06
36729 H 58.46041019394329 8.61317337844497 95.21928042499194 H 0.0 **** 0.06
36730 H 58.816551821851505 9.955134695245633 94.10520983528653 H 0.0 **** 0.06
36731 C 29.493367739389555 54.38395492459409 67.16948956712366 C 0.0 **** -0.24
36732 H 29.82576950199217 53.69301344033096 67.94479706101593 H 0.0 **** 0.06
36733 H 30.221490449729885 55.188987257491476 67.06502404044811 H 0.0 **** 0.06
36734 H 28.525579598320007 54.80143335322981 67.44654837920685 H 0.0 **** 0.06
36735 H 29.40185913683962 53.850408992481846 66.22373028709204 H 0.0 **** 0.06
36736 C 106.6770485567938 16.831842971787978 81.96500812495867 C 0.0 **** -0.24
36737 H 106.35902513130264 16.265327210321004 82.84086928998492 H 0.0 **** 0.06
36738 H 105.87475303459519 16.837770757271812 81.2267239506049 H 0.0 **** 0.06
36739 H 107.56372068557704 16.367338487962797 81.53529336244164 H 0.0 **** 0.06
36740 H 106.9084869455138 17.85547405687163 82.25887439985549 H 0.0 **** 0.06
36741 C 72.6171183455178 21.451550416315854 77.82985320878608 C 0.0 **** -0.24
36742 H 72.38167328030345 21.91643998344678 78.7875014066044 H 0.0 **** 0.06
36743 H 71.72559844996957 20.96651775268211 77.43250661561835 H 0.0 **** 0.06
36744 H 73.40375356656972 20.709485432059523 77.96995449092954 H 0.0 **** 0.06
36745 H 72.9585549059228 22.215435200312726 77.13043208855821 H 0.0 **** 0.06
36746 C 61.32921659285887 71.73915530371181 97.50092435897506 C 0.0 **** -0.24
36747 H 61.835923779823474 71.52987108639934 98.44281217333912 H 0.0 **** 0.06
36748 H 61.796011461826026 71.16355508055841 96.70151040243849 H 0.0 **** 0.06
36749 H 61.404823443331054 72.80292253755778 97.2763501163391 H 0.0 **** 0.06
36750 H 60.27865297588096 71.46004007635497 97.58470701694193 H 0.0 **** 0.06
36751 C 24.5293352058776 2.494876923814786 39.632891381453476 C 0.0 **** -0.24
36752 H 24.238380792961223 1.5444826223836117 40.07968205301722 H 0.0 **** 0.06
36753 H 25.615397182677995 2.5827614765331646 39.64005934249673 H 0.0 **** 0.06
36754 H 24.094037166575248 3.3136889336990976 40.205547674250056 H 0.0 **** 0.06
36755 H 24.168079189325027 2.538215778424046 38.60494264039346 H 0.0 **** 0.06
36756 C 46.44614734435311 39.88908454815544 52.69087439786921 C 0.0 **** -0.24
36757 H 45.40691339853399 39.65973644996234 52.92888709832397 H 0.0 **** 0.06
36758 H 46.882102217863206 39.059632450108836 52.13347119601991 H 0.0 **** 0.06
36759 H 47.00459737909188 40.040220808391894 53.61442250087248 H 0.0 **** 0.06
36760 H 46.48922567402644 40.79556031427643 52.08744034693473 H 0.0 **** 0.06
36761 C 49.04546911785144 106.35302636119613 15.65080428589205 C 0.0 **** -0.24
36762 H 49.11056653529883 105.78074181247138 16.575938562142397 H 0.0 **** 0.06
36763 H 50.0093962246504 106.33121622032547 15.141672063640755 H 0.0 **** 0.06
36764 H 48.77897822163189 107.38525630932992 15.880298779403745 H 0.0 **** 0.06
36765 H 48.28415928250743 105.91533868022032 15.005857380401167 H 0.0 **** 0.06
36766 C 51.722306814661124 83.86091214471122 34.36713685495632 C 0.0 **** -0.24
36767 H 51.75373840317468 84.0145355419863 33.28807351935617 H 0.0 **** 0.06
36768 H 51.10847627601379 82.98843150802881 34.59202430339654 H 0.0 **** 0.06
36769 H 51.29353887382081 84.74029275081017 34.84654010677783 H 0.0 **** 0.06
36770 H 52.73355508345668 83.69918489856613 34.74002685828081 H 0.0 **** 0.06
36771 C 21.769558364727715 91.33604314652177 90.55631855579557 C 0.0 **** -0.24
36772 H 20.71397848323437 91.16775000083231 90.77272864834362 H 0.0 **** 0.06
36773 H 21.973030787851513 92.40678417903354 90.54958523778015 H 0.0 **** 0.06
36774 H 22.011337262931306 90.91310414467748 89.58193401703559 H 0.0 **** 0.06
36775 H 22.377605248497474 90.85539562480099 91.3226067983332 H 0.0 **** 0.06
36776 C 80.90491971150483 78.05107520027616 5.742713900595852 C 0.0 **** -0.24
36777 H 80.39231291464738 77.15434767891472 6.092742215956104 H 0.0 **** 0.06
36778 H 81.59417959166062 77.78459640072752 4.9404604000511725 H 0.0 **** 0.06
36779 H 81.46149127874635 78.49630606777544 6.567624996389156 H 0.0 **** 0.06
36780 H 80.171938594429 78.76575341710445 5.370291571897793 H 0.0 **** 0.06
36781 C 64.67159804688913 108.21708282417069 21.22201501200294 C 0.0 **** -0.24
36782 H 65.35403901742666 108.77167857670872 20.578236643931035 H 0.0 **** 0.06
36783 H 64.77195931574752 107.14967564495578 21.024077429012436 H 0.0 **** 0.06
36784 H 63.64754531843806 108.5297622335309 21.02152996291983 H 0.0 **** 0.06
36785 H 64.91548509976568 108.41685092615415 22.265923817646865 H 0.0 **** 0.06
36786 C 56.099503355685556 109.37857111796578 56.08968562922604 C 0.0 **** -0.24
36787 H 55.60339629135842 110.12229921476921 55.46648421157291 H 0.0 **** 0.06
36788 H 56.214221638787365 108.45101301353273 55.52756777636426 H 0.0 **** 0.06
36789 H 55.49930030951566 109.19294360093096 56.97989931917781 H 0.0 **** 0.06
36790 H 57.08175524810713 109.74926144566626 56.38457999570484 H 0.0 **** 0.06
36791 C 15.426715653005289 17.536444242650077 31.471384003208854 C 0.0 **** -0.24
36792 H 16.40087476529986 18.02348278746848 31.427586606108704 H 0.0 **** 0.06
36793 H 14.823786249877642 17.85184273343981 30.619985948603784 H 0.0 **** 0.06
36794 H 14.922467782224828 17.81571613071179 32.39731602277914 H 0.0 **** 0.06
36795 H 15.559695933647802 16.454740404736015 31.44264712038821 H 0.0 **** 0.06
36796 C 28.024174138942897 77.64108065606791 42.73050747947275 C 0.0 **** -0.24
36797 H 27.23322780783036 78.0689238618167 43.34613139150102 H 0.0 **** 0.06
36798 H 28.367086827660813 78.38566443343896 42.011319274168216 H 0.0 **** 0.06
36799 H 27.640110713185038 76.77116830471323 42.19842714672615 H 0.0 **** 0.06
36800 H 28.856637442959652 77.34025216038864 43.36630365490544 H 0.0 **** 0.06
36801 C 99.37499446607256 108.32196743228874 103.56482940438131 C 0.0 **** -0.24
36802 H 99.0917728038697 109.3061653758563 103.18992982390039 H 0.0 **** 0.06
36803 H 99.75034254338979 107.71442903414899 102.74165468268015 H 0.0 **** 0.06
36804 H 98.5042500033162 107.83779512707946 104.00693232202066 H 0.0 **** 0.06
36805 H 100.15268409195943 108.43145770176606 104.3203235679742 H 0.0 **** 0.06
36806 C 76.13649706079559 12.344801383694403 1.889480876900464 C 0.0 **** -0.24
36807 H 75.75937544681705 13.036193433480264 2.642738489094839 H 0.0 **** 0.06
36808 H 76.39031670780913 11.395867294303912 2.362516225190433 H 0.0 **** 0.06
36809 H 77.0254848769439 12.767786804828916 1.4212066539809314 H 0.0 **** 0.06
36810 H 75.37059181735343 12.180250550855803 1.1310680920405645 H 0.0 **** 0.06
36811 C 13.828456502859012 55.18780193354317 45.51261279222189 C 0.0 **** -0.24
36812 H 14.364109956171006 56.13470967434975 45.45116524110955 H 0.0 **** 0.06
36813 H 13.551630114980298 54.99367096602589 46.54957476162497 H 0.0 **** 0.06
36814 H 14.469730457376329 54.383512558690256 45.15078673558793 H 0.0 **** 0.06
36815 H 12.928171879975451 55.23852141717805 44.89950520951771 H 0.0 **** 0.06
36816 C 58.55771304372656 18.734547049088704 39.79175006534135 C 0.0 **** -0.24
36817 H 57.86574457869686 19.533763776367707 40.06016592563286 H 0.0 **** 0.06
36818 H 59.531361607495214 19.163541112502486 39.55305707252185 H 0.0 **** 0.06
36819 H 58.17366713337278 18.198504125323623 38.92399927136913 H 0.0 **** 0.06
36820 H 58.659311735327364 18.044692019242035 40.62952776557114 H 0.0 **** 0.06
36821 C 33.652607591349124 7.889654631816841 22.128406026741715 C 0.0 **** -0.24
36822 H 32.680276461654984 8.371509266527456 22.231158254936332 H 0.0 **** 0.06
36823 H 33.563252896858216 6.83365723339417 22.383135215909135 H 0.0 **** 0.06
36824 H 34.366875216927156 8.367369008893467 22.798385446199546 H 0.0 **** 0.06
36825 H 33.998554624789904 7.987689688764489 21.098652857848435 H 0.0 **** 0.06
36826 C 82.92421042582585 96.78972439714218 95.23180975825015 C 0.0 **** -0.24
36827 H 81.92784142921982 96.60473579763115 94.8324431470473 H 0.0 **** 0.06
36828 H 82.90836553028575 96.67279125510142 96.3156147841881 H 0.0 **** 0.06
36829 H 83.23356022270868 97.80464313195327 94.9804465970173 H 0.0 **** 0.06
36830 H 83.62781420326324 96.07828460684786 94.79890225467909 H 0.0 **** 0.06
36831 C 59.325820242385646 71.94775993213517 48.26539110158839 C 0.0 **** -0.24
36832 H 58.596290025474644 72.58874910391552 48.759727265790275 H 0.0 **** 0.06
36833 H 59.04191224722871 70.90411970403039 48.39815036386915 H 0.0 **** 0.06
36834 H 60.310779719066375 72.1149709346679 48.70284522547274 H 0.0 **** 0.06
36835 H 59.35590461989213 72.18430710534705 47.20193537541277 H 0.0 **** 0.06
36836 C 58.5388771705191 67.78747504093622 45.832571316996024 C 0.0 **** -0.24
36837 H 57.96526684476831 68.48388741938066 45.221780293851 H 0.0 **** 0.06
36838 H 57.86966112129008 67.03332561884196 46.2491002598141 H 0.0 **** 0.06
36839 H 59.024428697406904 68.3301232581839 46.64391179969158 H 0.0 **** 0.06
36840 H 59.29606474510902 67.30199053690595 45.21678278908064 H 0.0 **** 0.06
36841 C 5.071450345670428 82.31568425479236 83.24891579158287 C 0.0 **** -0.24
36842 H 4.559202020064049 81.65363127773156 83.94707139159874 H 0.0 **** 0.06
36843 H 4.830277182574235 83.3515829700787 83.48847187220974 H 0.0 **** 0.06
36844 H 4.747350872370561 82.09214559532325 82.23255821405638 H 0.0 **** 0.06
36845 H 6.147796531755489 82.1648281594871 83.3293834276796 H 0.0 **** 0.06
36846 C 62.095790052540465 83.77726019830868 79.31880222813275 C 0.0 **** -0.24
36847 H 61.94729270693837 83.75096688585859 78.2388619623459 H 0.0 **** 0.06
36848 H 62.00878850951648 84.8043352259385 79.67313871524604 H 0.0 **** 0.06
36849 H 63.08612395941667 83.39208494487815 79.55942528278739 H 0.0 **** 0.06
36850 H 61.338658230532445 83.15948990971344 79.80357547045789 H 0.0 **** 0.06
36851 C 51.16015141544317 91.22126346096275 106.1572762153454 C 0.0 **** -0.24
36852 H 50.50401783033698 91.0707274683254 105.30098404555656 H 0.0 **** 0.06
36853 H 52.197454719372466 91.09106309011406 105.84700616048548 H 0.0 **** 0.06
36854 H 50.91777020956087 90.49473612344212 106.93217624649537 H 0.0 **** 0.06
36855 H 51.02115003590746 92.22949316917601 106.54879154779655 H 0.0 **** 0.06
36856 C 81.38856013352424 29.22402847021752 15.778059980369406 C 0.0 **** -0.24
36857 H 80.51217107886254 29.694054691664093 15.331524067375682 H 0.0 **** 0.06
36858 H 81.6816116981521 29.77818463830603 16.669942522929148 H 0.0 **** 0.06
36859 H 82.20859370175093 29.228977460620783 15.060672262953432 H 0.0 **** 0.06
36860 H 81.14922139443134 28.196315777461834 16.05016527524819 H 0.0 **** 0.06
36861 C 15.492470262385105 12.095617462966771 102.32163429037672 C 0.0 **** -0.24
36862 H 16.16639671764287 11.751848340447822 101.53730041600109 H 0.0 **** 0.06
36863 H 14.83986309597012 11.277466992210464 102.62494334580772 H 0.0 **** 0.06
36864 H 14.890075163670815 12.921701132246056 101.94566278203318 H 0.0 **** 0.06
36865 H 16.075930454901087 12.431993730300292 103.17878244041685 H 0.0 **** 0.06
36866 C 54.7715956153796 22.911254895162415 7.815524460283967 C 0.0 **** -0.24
36867 H 55.02323354934174 21.87921157432973 7.568926156603197 H 0.0 **** 0.06
36868 H 55.47233254602109 23.583411534030176 7.319836090110002 H 0.0 **** 0.06
36869 H 54.83358786190954 23.051992392515928 8.894377380476271 H 0.0 **** 0.06
36870 H 53.75870790904627 23.12788403019161 7.477749406966538 H 0.0 **** 0.06
36871 C 75.8164040578448 39.47385436263653 93.69365014093273 C 0.0 **** -0.24
36872 H 75.18058067075134 40.359195666506366 93.72199036241022 H 0.0 **** 0.06
36873 H 75.85649678531405 39.02413735883181 94.68633991168963 H 0.0 **** 0.06
36874 H 76.82085518028725 39.75856881296954 93.38257894624496 H 0.0 **** 0.06
36875 H 75.40510315804664 38.755354193541706 92.98509190295692 H 0.0 **** 0.06
36876 C 4.716683356110906 42.39402919870429 0.9704856525388834 C 0.0 **** -0.24
36877 H 4.283219432484444 42.77968328067226 1.8929631111942058 H 0.0 **** 0.06
36878 H 4.4423329667889675 41.34611765113988 0.8500615129492246 H 0.0 **** 0.06
36879 H 5.8022302393787015 42.48228026267731 1.015745492031698 H 0.0 **** 0.06
36880 H 4.3402688289380364 42.967981224872915 0.12368230387522772 H 0.0 **** 0.06
36881 C 51.96780359071588 107.08598248021053 83.95066823094123 C 0.0 **** -0.24
36882 H 52.04541726812535 106.53478297420624 83.0128830674133 H 0.0 **** 0.06
36883 H 52.56975437254035 107.99328209998396 83.88969736958143 H 0.0 **** 0.06
36884 H 52.331634992008844 106.46320920218538 84.76813315728845 H 0.0 **** 0.06
36885 H 50.92615138382631 107.35099118760903 84.13152394800767 H 0.0 **** 0.06
36886 C 51.55184019149894 46.73462412162155 43.66587850933831 C 0.0 **** -0.24
36887 H 52.28835622880731 45.945653145107 43.821935281791994 H 0.0 **** 0.06
36888 H 50.67091058518965 46.534297021436046 44.2766795169678 H 0.0 **** 0.06
36889 H 51.26707026506847 46.76315746373852 42.61433600120665 H 0.0 **** 0.06
36890 H 51.982363381553064 47.69403364825355 43.95265346032906 H 0.0 **** 0.06
36891 C 104.29763254770648 89.97224386027335 84.3651574940862 C 0.0 **** -0.24
36892 H 104.62820478706323 90.11651243084304 83.33611067665571 H 0.0 **** 0.06
36893 H 105.06880743344053 89.44116656378623 84.92352292445497 H 0.0 **** 0.06
36894 H 103.37639923762907 89.38923991533375 84.37225299443452 H 0.0 **** 0.06
36895 H 104.11630809250585 90.94331792387189 84.82741976758273 H 0.0 **** 0.06
36896 C 62.24021165286729 25.47777977160783 13.43333684166359 C 0.0 **** -0.24
36897 H 61.225756724625114 25.830590838436635 13.246764344715302 H 0.0 **** 0.06
36898 H 62.695207320156555 25.166277162947203 12.493497088469837 H 0.0 **** 0.06
36899 H 62.20881992047521 24.632194684000822 14.120852790176087 H 0.0 **** 0.06
36900 H 62.82891002213921 26.282590360340194 13.873273046528112 H 0.0 **** 0.06
36901 C 43.288181087850596 103.98677937029095 50.785140890015384 C 0.0 **** -0.24
36902 H 42.449468708898586 103.96572568984544 51.48171972263612 H 0.0 **** 0.06
36903 H 43.037531362267124 103.4071007577561 49.89702990177192 H 0.0 **** 0.06
36904 H 44.16753965656278 103.55678483250688 51.26390377558965 H 0.0 **** 0.06
36905 H 43.49751017895672 105.01759754916179 50.50065555294404 H 0.0 **** 0.06
36906 C 29.021943032274663 98.71479708844083 76.27822217535902 C 0.0 **** -0.24
36907 H 29.086104764208997 97.93306725797015 77.03428395392217 H 0.0 **** 0.06
36908 H 30.016986014116924 98.91908009045568 75.88239813353653 H 0.0 **** 0.06
36909 H 28.614898417424357 99.62089250454216 76.7262974795317 H 0.0 **** 0.06
36910 H 28.370693297763125 98.38420337038247 75.46928627354805 H 0.0 **** 0.06
36911 C 73.23549514365476 38.49789730162255 85.95549002401384 C 0.0 **** -0.24
36912 H 73.58134874581435 39.39974566394622 86.46146689307966 H 0.0 **** 0.06
36913 H 72.1458657457298 38.48485134373006 85.94021620679177 H 0.0 **** 0.06
36914 H 73.60260100573498 37.62026424240271 86.48804636594423 H 0.0 **** 0.06
36915 H 73.61446752172338 38.48727697616997 84.93407393695918 H 0.0 **** 0.06
36916 C 98.06036884614068 74.64432742929341 68.31872580439102 C 0.0 **** -0.24
36917 H 98.40409391961519 75.62779607294902 67.99884580909685 H 0.0 **** 0.06
36918 H 98.74522611496477 74.2472303027069 69.06931638899471 H 0.0 **** 0.06
36919 H 98.03174804717973 73.97195308619186 67.46109223377641 H 0.0 **** 0.06
36920 H 97.06204432052357 74.72941177438773 68.74722259235978 H 0.0 **** 0.06
36921 C 66.4214219227249 77.08161982275078 29.21271376551772 C 0.0 **** -0.24
36922 H 65.97113629552604 76.18621462718625 29.641542561801486 H 0.0 **** 0.06
36923 H 65.68392980446998 77.59901000473633 28.59761491252766 H 0.0 **** 0.06
36924 H 67.27564064874926 76.79975660518332 28.597329972294176 H 0.0 **** 0.06
36925 H 66.75281135701726 77.74113733211217 30.014771387059668 H 0.0 **** 0.06
36926 C 77.47771676768468 72.70159848597002 55.95427021795419 C 0.0 **** -0.24
36927 H 76.80985032964419 73.2051881121019 56.653848440315016 H 0.0 **** 0.06
36928 H 77.27991703650727 73.05789679331734 54.942543677427786 H 0.0 **** 0.06
36929 H 77.30817065304919 71.625829041643 56.00083151126109 H 0.0 **** 0.06
36930 H 78.51262094986711 72.91776767193082 56.22076408715878 H 0.0 **** 0.06
36931 C 63.92444770119458 90.06638107998683 50.970956614272865 C 0.0 **** -0.24
36932 H 64.42197876311579 89.11679844362216 50.77241840878153 H 0.0 **** 0.06
36933 H 63.63814519522708 90.11337597852351 52.02203374204086 H 0.0 **** 0.06
36934 H 63.033649808548375 90.14726556417938 50.347644837950014 H 0.0 **** 0.06
36935 H 64.60361911996358 90.88683647929122 50.742262967569786 H 0.0 **** 0.06
36936 C 33.02367349528916 67.9159795893608 8.042747961301808 C 0.0 **** -0.24
36937 H 32.330182241100204 68.68575161859809 8.381855103315457 H 0.0 **** 0.06
36938 H 34.04400362118822 68.21383029595927 8.281990659011262 H 0.0 **** 0.06
36939 H 32.92566354505947 67.78924117887368 6.964306406545655 H 0.0 **** 0.06
36940 H 32.79153634217094 66.97411920852869 8.541389289141792 H 0.0 **** 0.06
36941 C 41.85678363883672 57.52557772191284 88.02674154127556 C 0.0 **** -0.24
36942 H 42.571591354476965 58.0476067974256 88.66226437180046 H 0.0 **** 0.06
36943 H 41.91485386803372 57.92203866819244 87.01242533657938 H 0.0 **** 0.06
36944 H 40.84916985984577 57.67223252393566 88.41659870404851 H 0.0 **** 0.06
36945 H 42.09071723298453 56.460997946625355 88.01548492785287 H 0.0 **** 0.06
36946 C 49.44167534037482 40.448164145204544 94.34699275762401 C 0.0 **** -0.24
36947 H 48.81660062201123 41.3350497889727 94.45015367215323 H 0.0 **** 0.06
36948 H 49.507690281268495 40.171575824663705 93.29451677996848 H 0.0 **** 0.06
36949 H 49.000413701803595 39.625758791574526 94.91125812123092 H 0.0 **** 0.06
36950 H 50.439054146190195 40.659231657888256 94.7315336637574 H 0.0 **** 0.06
36951 C 65.30374337301255 87.68612514575977 99.14017600761655 C 0.0 **** -0.24
36952 H 64.28786603682137 87.6112759056714 98.75481324233587 H 0.0 **** 0.06
36953 H 65.38572330292953 88.56395815730406 99.78170719586329 H 0.0 **** 0.06
36954 H 66.00256694869068 87.77804271009808 98.30813901756645 H 0.0 **** 0.06
36955 H 65.5417858746278 86.79160698235953 99.71624612815623 H 0.0 **** 0.06
36956 C 84.14058673133766 37.0559355844551 81.10802582988822 C 0.0 **** -0.24
36957 H 85.21470541697018 36.998886528518554 81.28322047840612 H 0.0 **** 0.06
36958 H 83.95492098730644 37.50080508610998 80.13041901248471 H 0.0 **** 0.06
36959 H 83.67858162521753 37.66979970250628 81.88067375491624 H 0.0 **** 0.06
36960 H 83.71406548911182 36.05284107582018 81.1378723384554 H 0.0 **** 0.06
36961 C 101.80161728719119 78.31957090918718 110.23575763254338 C 0.0 **** -0.24
36962 H 101.16798695395303 77.53116630079114 109.83037451626709 H 0.0 **** 0.06
36963 H 102.60206550454075 77.87335193553218 110.82765130074756 H 0.0 **** 0.06
36964 H 101.20469136008106 78.97565949105234 110.86862562941238 H 0.0 **** 0.06
36965 H 102.23200460388964 78.89611963127675 109.41778514462372 H 0.0 **** 0.06
36966 C 27.514186853510466 71.03502036661396 36.54943957602279 C 0.0 **** -0.24
36967 H 27.766045562086674 71.44966971138788 35.57385216575648 H 0.0 **** 0.06
36968 H 26.432165786339795 71.0453509237836 36.68097065715085 H 0.0 **** 0.06
36969 H 27.981405940136483 71.63496854384762 37.33070858677604 H 0.0 **** 0.06
36970 H 27.879181058192728 70.00937994841135 36.612762150892706 H 0.0 **** 0.06
36971 C 60.39025620586108 83.03451552864747 70.73878801913563 C 0.0 **** -0.24
36972 H 60.607224318238536 81.99680659244515 70.99077551692315 H 0.0 **** 0.06
36973 H 61.32557488831242 83.57252281483652 70.57857270613266 H 0.0 **** 0.06
36974 H 59.839471646108564 83.49895247949074 71.5561149844585 H 0.0 **** 0.06
36975 H 59.7904383385644 83.07016633107152 69.82957063074588 H 0.0 **** 0.06
36976 C 72.73860751733656 79.61349981824321 95.4219142568015 C 0.0 **** -0.24
36977 H 72.02489387502712 79.88543147036745 96.19977977251365 H 0.0 **** 0.06
36978 H 72.25800253605007 78.9481890133678 94.70428612039382 H 0.0 **** 0.06
36979 H 73.59147950029936 79.10694994942924 95.87329361385301 H 0.0 **** 0.06
36980 H 73.07881128585959 80.51494801950037 94.91176301136885 H 0.0 **** 0.06
36981 C 0.1504818146896696 103.07954143582114 30.43952001517838 C 0.0 **** -0.24
36982 H -0.3843043463005813 103.43459476997447 31.320830208639883 H 0.0 **** 0.06
36983 H 0.3720814159775472 102.01823208553272 30.553132629022663 H 0.0 **** 0.06
36984 H 1.0804074737789762 103.63676952351744 30.330608080230185 H 0.0 **** 0.06
36985 H -0.4684990078554847 103.22973728046254 29.554778414755432 H 0.0 **** 0.06
36986 C 40.256870586788 76.39299667970556 34.54780168508424 C 0.0 **** -0.24
36987 H 41.28336127263799 76.02858926253352 34.57693583777194 H 0.0 **** 0.06
36988 H 39.63154220946001 75.67716357738536 34.01337473002536 H 0.0 **** 0.06
36989 H 40.2280018303382 77.35451098809625 34.0346101107919 H 0.0 **** 0.06
36990 H 39.88464527058475 76.51304117831708 35.56516462840614 H 0.0 **** 0.06
36991 C 102.49967701385884 87.3109287732994 49.4311072838297 C 0.0 **** -0.24
36992 H 103.28991423385646 87.92873798830327 49.00493052936697 H 0.0 **** 0.06
36993 H 101.56668487213602 87.49871394560788 48.90052733546829 H 0.0 **** 0.06
36994 H 102.37452726757783 87.55705672817955 50.485392959243036 H 0.0 **** 0.06
36995 H 102.76866441619876 86.25931339610223 49.332230573994174 H 0.0 **** 0.06
36996 C 105.0623030807417 36.122561133084886 73.74713464237936 C 0.0 **** -0.24
36997 H 105.69195545589642 35.477815006431534 74.36071355121618 H 0.0 **** 0.06
36998 H 104.86028865211563 37.049929596519824 74.28438291233692 H 0.0 **** 0.06
36999 H 104.12340777995838 35.61455043209859 73.53141636627043 H 0.0 **** 0.06
37000 H 105.57728424271434 36.34918095081529 72.81329760171849 H 0.0 **** 0.06
37001 C 61.353529322226365 98.16826627855853 6.47043007765123 C 0.0 **** -0.24
37002 H 61.98240551694501 97.28047347490481 6.394895550161252 H 0.0 **** 0.06
37003 H 61.90112416624197 99.03362595174089 6.0951071118717834 H 0.0 **** 0.06
37004 H 61.0826834748414 98.33309663367797 7.512763592713085 H 0.0 **** 0.06
37005 H 60.44973363620076 98.02491878198808 5.877631106423195 H 0.0 **** 0.06
37006 C 85.063308572251 80.99776202733361 103.73052642970927 C 0.0 **** -0.24
37007 H 84.09415330988293 80.96900890670531 104.22803325587859 H 0.0 **** 0.06
37008 H 85.29197792163995 80.01214978773775 103.32355267594784 H 0.0 **** 0.06
37009 H 85.83276547855309 81.2810268331771 104.44921613108181 H 0.0 **** 0.06
37010 H 85.03485342849035 81.72808659417875 102.92166668878079 H 0.0 **** 0.06
37011 C 26.479277713850934 93.4803892643087 95.25502877459995 C 0.0 **** -0.24
37012 H 26.44084176849651 94.39175290578315 95.85211482076816 H 0.0 **** 0.06
37013 H 27.465803758841076 93.38450920882248 94.8022561214127 H 0.0 **** 0.06
37014 H 25.722735965474328 93.52925877790136 94.47131573528998 H 0.0 **** 0.06
37015 H 26.286762115635383 92.61863326268721 95.89327952232037 H 0.0 **** 0.06
37016 C 51.07410475776885 4.602593919483979 27.930020723087154 C 0.0 **** -0.24
37017 H 51.14205921170213 4.137529356957955 28.91359831940585 H 0.0 **** 0.06
37018 H 51.6285393317913 5.541609170065513 27.933821689007175 H 0.0 **** 0.06
37019 H 50.028487707831964 4.799035042859501 27.69247996208955 H 0.0 **** 0.06
37020 H 51.49782755646005 3.933770782262954 27.18169775141348 H 0.0 **** 0.06
37021 C 74.92788701867397 102.06842352314573 107.90835285324917 C 0.0 **** -0.24
37022 H 73.86542634629907 102.14738469476453 108.13666434797149 H 0.0 **** 0.06
37023 H 75.23371907533902 101.02314099945107 107.95647715863723 H 0.0 **** 0.06
37024 H 75.49932062081712 102.64835144387843 108.63461526302457 H 0.0 **** 0.06
37025 H 75.11366169771435 102.45655527441778 106.90693623735164 H 0.0 **** 0.06
37026 C 24.58331720641751 35.0683515623573 99.53571989062056 C 0.0 **** -0.24
37027 H 24.111905711631817 34.220161626751526 99.03972115499124 H 0.0 **** 0.06
37028 H 25.592280510678084 34.79334391541579 99.84569998364947 H 0.0 **** 0.06
37029 H 23.99728493390092 35.34794171268662 100.41193922312408 H 0.0 **** 0.06
37030 H 24.63123517266348 35.91235126650449 98.84675605990222 H 0.0 **** 0.06
37031 C 2.3538245525343404 92.67659191184272 57.756727407673225 C 0.0 **** -0.24
37032 H 1.3479796576695717 92.69878483179339 57.337288191892185 H 0.0 **** 0.06
37033 H 2.3051435306127477 92.3694105863051 58.8009340311973 H 0.0 **** 0.06
37034 H 2.7965403485890636 93.6709541733007 57.690847224524646 H 0.0 **** 0.06
37035 H 2.965074523909035 91.9684499799159 57.197429456102384 H 0.0 **** 0.06
37036 C 49.92166118308586 86.01493081449375 3.769474677129267 C 0.0 **** -0.24
37037 H 50.27552770377969 85.02289738194946 4.0484905203012715 H 0.0 **** 0.06
37038 H 50.37572052202748 86.75973039684813 4.42428267144814 H 0.0 **** 0.06
37039 H 48.83703258605297 86.05552742906691 3.8694619326565487 H 0.0 **** 0.06
37040 H 50.19963870824182 86.22211588011935 2.735937260938613 H 0.0 **** 0.06
37041 C 77.7418965524372 99.48495784419293 82.68729788435112 C 0.0 **** -0.24
37042 H 77.58111461742793 98.54462898874498 82.16062482433082 H 0.0 **** 0.06
37043 H 76.92130330789496 100.16945595607307 82.46832555282006 H 0.0 **** 0.06
37044 H 78.68277132873668 99.92853707689537 82.36014975545314 H 0.0 **** 0.06
37045 H 77.78319238518453 99.29721140081217 83.76069748896171 H 0.0 **** 0.06
37046 C 23.86292239169697 65.46908488157197 102.72905477973728 C 0.0 **** -0.24
37047 H 23.143457832919268 65.9177168001655 102.04434764305594 H 0.0 **** 0.06
37048 H 23.78582871725331 64.38264553319598 102.67574538663226 H 0.0 **** 0.06
37049 H 23.652408974609216 65.79960599697469 103.74549983767747 H 0.0 **** 0.06
37050 H 24.871200201706586 65.7755030120488 102.44867901324375 H 0.0 **** 0.06
37051 C 23.170149537658176 34.36443364626186 81.30301501244706 C 0.0 **** -0.24
37052 H 23.942997578962718 33.606555107126056 81.43686504616413 H 0.0 **** 0.06
37053 H 22.253549440044026 34.037784122056536 81.7927874211272 H 0.0 **** 0.06
37054 H 22.983231811692008 34.50730151386679 80.23808152401271 H 0.0 **** 0.06
37055 H 23.503557862360594 35.3042155879844 81.7426017467019 H 0.0 **** 0.06
37056 C 76.702132693242 71.95090445598622 0.7901508054919617 C 0.0 **** -0.24
37057 H 76.4145474815428 72.95167847285887 1.1147735433504522 H 0.0 **** 0.06
37058 H 77.0917114734078 71.39103607993796 1.6406762508692623 H 0.0 **** 0.06
37059 H 77.47114956040375 72.02659876183445 0.021748479540633525 H 0.0 **** 0.06
37060 H 75.83182381076152 71.43718591015163 0.3838586054450843 H 0.0 **** 0.06
37061 C 13.3506381339663 78.99100999866754 95.63419757391749 C 0.0 **** -0.24
37062 H 12.55465551189809 79.21138565868652 94.9223850970431 H 0.0 **** 0.06
37063 H 13.183011840048437 79.55433535049295 96.5518868892529 H 0.0 **** 0.06
37064 H 14.311336580676084 79.27404627243911 95.203065650496 H 0.0 **** 0.06
37065 H 13.353399155233205 77.92415716694477 95.85773089663482 H 0.0 **** 0.06
37066 C 74.23936157378436 81.43989487021958 34.52591140807985 C 0.0 **** -0.24
37067 H 74.12118101006182 81.1590703516838 35.572769425204996 H 0.0 **** 0.06
37068 H 75.24578616065747 81.1834536011055 34.193160416750175 H 0.0 **** 0.06
37069 H 74.08384080051444 82.51322808546178 34.41795392096569 H 0.0 **** 0.06
37070 H 73.50890718798247 80.90320860484195 33.92044714106251 H 0.0 **** 0.06
37071 C 68.67894256617096 26.935009722827395 44.82902958661771 C 0.0 **** -0.24
37072 H 68.82730495904079 26.587104446576234 43.806119856562475 H 0.0 **** 0.06
37073 H 69.59842164670395 27.392914896390636 45.19318035934282 H 0.0 **** 0.06
37074 H 68.41549393640878 26.090547389301925 45.464750316284665 H 0.0 **** 0.06
37075 H 67.87409744878768 27.669806451988237 44.84879913721818 H 0.0 **** 0.06
37076 C 22.99872052710009 44.96485284082132 91.62828656026426 C 0.0 **** -0.24
37077 H 22.5922269053367 45.17860868510314 92.61793105098411 H 0.0 **** 0.06
37078 H 23.956492233834155 45.472732349535534 91.51179822970482 H 0.0 **** 0.06
37079 H 22.303478275406718 45.31727901043831 90.86682566020033 H 0.0 **** 0.06
37080 H 23.142258511781193 43.88934189896767 91.52001449408777 H 0.0 **** 0.06
37081 C 15.971376010042263 108.42280244175683 42.06717401401181 C 0.0 **** -0.24
37082 H 16.04995374039453 107.797507067288 42.956610338293494 H 0.0 **** 0.06
37083 H 14.921366053604018 108.6361293825027 41.86523472852106 H 0.0 **** 0.06
37084 H 16.406504254642243 107.89994019509852 41.21606346673155 H 0.0 **** 0.06
37085 H 16.50626443862339 109.3580349911502 42.232471257235936 H 0.0 **** 0.06
37086 C 26.27564883092529 103.68967288515483 82.21015026361823 C 0.0 **** -0.24
37087 H 27.201808084648917 104.14599180853816 82.5580263249511 H 0.0 **** 0.06
37088 H 26.46664754840677 102.65610635757668 81.92034259246424 H 0.0 **** 0.06
37089 H 25.89725574633502 104.2439029379023 81.35140382919957 H 0.0 **** 0.06
37090 H 25.53688394431032 103.71269043660226 83.0108283078581 H 0.0 **** 0.06
37091 C 62.083872299920216 53.919259059560886 6.443476255382706 C 0.0 **** -0.24
37092 H 61.71468272820297 54.940032082534174 6.346686769517746 H 0.0 **** 0.06
37093 H 62.21321663363369 53.67836608401194 7.499430532202126 H 0.0 **** 0.06
37094 H 63.04209508822677 53.82983027483982 5.930326781038815 H 0.0 **** 0.06
37095 H 61.36762388984553 53.22875403998117 5.9986709692482805 H 0.0 **** 0.06
37096 C 95.9437168341133 77.47729486583435 5.327720875547527 C 0.0 **** -0.24
37097 H 95.69356167522773 76.66817989579732 6.014256466264612 H 0.0 **** 0.06
37098 H 95.38120754289133 78.37085695185681 5.598748251875179 H 0.0 **** 0.06
37099 H 95.68911108934486 77.18148683324566 4.309391206103442 H 0.0 **** 0.06
37100 H 97.01218861088444 77.6867801956273 5.388291041805928 H 0.0 **** 0.06
37101 C 80.78558709169468 17.380988862093602 35.69902347789008 C 0.0 **** -0.24
37102 H 79.75724826848858 17.038551086250322 35.58865451947753 H 0.0 **** 0.06
37103 H 81.42219465310312 16.855382118989155 34.98667865998519 H 0.0 **** 0.06
37104 H 81.12887280514107 17.178306660224706 36.71308488268605 H 0.0 **** 0.06
37105 H 80.83395937109503 18.453017548013264 35.5058593225279 H 0.0 **** 0.06
37106 C 30.630690243871186 60.78026526640822 37.49165615039033 C 0.0 **** -0.24
37107 H 30.334737596606317 60.34577202213565 36.53722472630335 H 0.0 **** 0.06
37108 H 31.704879007019997 60.66012771278605 37.62774118751086 H 0.0 **** 0.06
37109 H 30.10275782889289 60.273647956036285 38.30039595079678 H 0.0 **** 0.06
37110 H 30.378243938982507 61.84089258097323 37.50110744774055 H 0.0 **** 0.06
37111 C 16.301356179469614 7.992022637710065 39.31899145633102 C 0.0 **** -0.24
37112 H 16.93020432441815 8.651062393699874 38.72027169738237 H 0.0 **** 0.06
37113 H 15.25865203573984 8.294257025942429 39.21596121894197 H 0.0 **** 0.06
37114 H 16.59822612674338 8.057881315183621 40.365395091151754 H 0.0 **** 0.06
37115 H 16.417932458977774 6.9655668586757 38.97144400502786 H 0.0 **** 0.06
37116 C 99.88043630993366 44.584641890411284 39.838283666133805 C 0.0 **** -0.24
37117 H 99.56424561727334 44.62586656809451 40.88057762711901 H 0.0 **** 0.06
37118 H 100.4420293273231 45.487203418711196 39.59308006887315 H 0.0 **** 0.06
37119 H 99.00410868995652 44.51570638997837 39.19494048001803 H 0.0 **** 0.06
37120 H 100.51266262362196 43.71034162522967 39.68460332394673 H 0.0 **** 0.06
37121 C 67.12438253171771 16.12326885204348 100.51118522825479 C 0.0 **** -0.24
37122 H 67.71152756645475 15.661646800025153 101.3049487387609 H 0.0 **** 0.06
37123 H 67.52725703910978 17.111624376640464 100.28962434006382 H 0.0 **** 0.06
37124 H 66.08743468210906 16.21787659088801 100.83573774678996 H 0.0 **** 0.06
37125 H 67.17048920035069 15.502316596891887 99.61710852441956 H 0.0 **** 0.06
37126 C 22.36580175757043 88.53274940920218 52.55519392061433 C 0.0 **** -0.24
37127 H 21.833848440189346 89.3994851453071 52.16221352589963 H 0.0 **** 0.06
37128 H 23.401068122248322 88.80581204453159 52.760788445321566 H 0.0 **** 0.06
37129 H 22.3413270371213 87.72727022579579 51.82057901958285 H 0.0 **** 0.06
37130 H 21.887987814354418 88.20001769226462 53.47599852063723 H 0.0 **** 0.06
37131 C 54.10485556917508 104.17930920716485 25.675879232493656 C 0.0 **** -0.24
37132 H 54.066497845690925 103.32234156365087 26.348193045493687 H 0.0 **** 0.06
37133 H 53.09350867346181 104.54083862897554 25.490106085284054 H 0.0 **** 0.06
37134 H 54.5635920260651 103.88041195425362 24.733386248138146 H 0.0 **** 0.06
37135 H 54.69692872599931 104.97235233931585 26.132161685739035 H 0.0 **** 0.06
37136 C 99.37277470568328 24.88674160514247 56.05047813673542 C 0.0 **** -0.24
37137 H 98.8968095312441 25.415634368959417 55.22442283846743 H 0.0 **** 0.06
37138 H 99.23494438959003 25.45285938424448 56.97154229466571 H 0.0 **** 0.06
37139 H 100.438141530986 24.77730673891521 55.845484686246266 H 0.0 **** 0.06
37140 H 98.92005030394098 23.901035441784725 56.1576961661068 H 0.0 **** 0.06
37141 C 49.01526334752009 63.115157535982235 19.632751647309814 C 0.0 **** -0.24
37142 H 49.54400634667746 62.738581230940554 18.757503210730935 H 0.0 **** 0.06
37143 H 49.284462516364954 64.1588971411452 19.797849275802648 H 0.0 **** 0.06
37144 H 49.29276168098522 62.52468373955553 20.506353467224606 H 0.0 **** 0.06
37145 H 47.94058518658164 63.03910548231998 19.469412638391166 H 0.0 **** 0.06
37146 C 23.077489414638094 45.688091243916865 108.12780137732047 C 0.0 **** -0.24
37147 H 23.34808839384806 45.81533422217004 109.17628131513685 H 0.0 **** 0.06
37148 H 23.825646139857696 45.06796753793286 107.63292978768136 H 0.0 **** 0.06
37149 H 23.03387854260896 46.6624509015818 107.64226865262444 H 0.0 **** 0.06
37150 H 22.102923065963978 45.20428806367179 108.06023909459773 H 0.0 **** 0.06
37151 C 85.8465637217385 20.75504295528461 55.498802638843934 C 0.0 **** -0.24
37152 H 85.87452051418597 20.528866220251217 56.565473776369636 H 0.0 **** 0.06
37153 H 85.98960225476156 21.824828336080373 55.35104648830932 H 0.0 **** 0.06
37154 H 84.88075985970801 20.45723397265718 55.08957472730974 H 0.0 **** 0.06
37155 H 86.64046187978747 20.20723187462886 54.99114678543834 H 0.0 **** 0.06
37156 C 6.908769335277098 3.0856583258302663 54.348700029341614 C 0.0 **** -0.24
37157 H 7.498569614189336 3.967543878920665 54.60207390054077 H 0.0 **** 0.06
37158 H 7.294234408927393 2.2227534854481803 54.89153023545197 H 0.0 **** 0.06
37159 H 6.975617181942029 2.901397968615612 53.27642617326535 H 0.0 **** 0.06
37160 H 5.867193463058992 3.254210619079288 54.6248098448919 H 0.0 **** 0.06
37161 C 87.60645550791244 44.62814129556363 19.60656001049071 C 0.0 **** -0.24
37162 H 86.75619278787775 45.263366729402314 19.85555540144658 H 0.0 **** 0.06
37163 H 87.8075991077049 43.949919571460455 20.43654214156234 H 0.0 **** 0.06
37164 H 88.48318892647055 45.24915288386099 19.424261288674373 H 0.0 **** 0.06
37165 H 87.3777550946329 44.04982089461329 18.712055507443893 H 0.0 **** 0.06
37166 C 81.75155165274924 82.59168533163847 108.9902934053575 C 0.0 **** -0.24
37167 H 82.04385136187527 81.65079732423663 108.52472779549096 H 0.0 **** 0.06
37168 H 82.51984843229195 83.34268576420014 108.80506607160751 H 0.0 **** 0.06
37169 H 81.63786599819653 82.44557605466652 110.06504009447767 H 0.0 **** 0.06
37170 H 80.80478153597528 82.92698168203461 108.56756015030892 H 0.0 **** 0.06
37171 C 59.88417828447342 51.94591576235695 25.675119687012312 C 0.0 **** -0.24
37172 H 60.45153121221438 51.1989378382699 26.230144334036254 H 0.0 **** 0.06
37173 H 60.30039533550263 52.934781339023914 25.867748797707463 H 0.0 **** 0.06
37174 H 58.842209084651074 51.92045377570659 25.994665651626093 H 0.0 **** 0.06
37175 H 59.942916345373305 51.72758130831181 24.609417301365255 H 0.0 **** 0.06
37176 C 5.311890681701641 90.84513934909181 9.74224007099562 C 0.0 **** -0.24
37177 H 5.963585417630554 91.6333704080443 9.364706598395202 H 0.0 **** 0.06
37178 H 5.612802649229593 90.578887857017 10.755766040677784 H 0.0 **** 0.06
37179 H 5.391855319385115 89.9695902879174 9.097649310243881 H 0.0 **** 0.06
37180 H 4.280853123360771 91.19936527182251 9.74904475899119 H 0.0 **** 0.06
37181 C 0.21099580011668895 104.10335489922537 56.34011042115572 C 0.0 **** -0.24
37182 H -0.3429948860801524 104.77242085872071 55.682464056834306 H 0.0 **** 0.06
37183 H 1.2125331002555928 104.50152362562656 56.502339965457814 H 0.0 **** 0.06
37184 H 0.2811096996409441 103.11788737052909 55.87962532576706 H 0.0 **** 0.06
37185 H -0.3067855037410636 104.02189447982171 57.29506821163398 H 0.0 **** 0.06
37186 C 17.18430909129043 54.744007610395464 59.46159703439787 C 0.0 **** -0.24
37187 H 18.194015530670725 54.37715800002169 59.27504666357186 H 0.0 **** 0.06
37188 H 17.104696585337905 55.0779129600939 60.49672014730231 H 0.0 **** 0.06
37189 H 16.467565638322583 53.94146565087395 59.28228152909409 H 0.0 **** 0.06
37190 H 16.970909256739418 55.577277265223906 58.792630750416095 H 0.0 **** 0.06
37191 C 19.951856885546107 22.81702997331329 79.9243885786445 C 0.0 **** -0.24
37192 H 19.551720705392057 22.48224598094612 80.88176806498502 H 0.0 **** 0.06
37193 H 20.2242130499867 21.950636326366148 79.32220516245576 H 0.0 **** 0.06
37194 H 20.834245355109374 23.434471820383276 80.09430890389822 H 0.0 **** 0.06
37195 H 19.195218952594928 23.401466239019243 79.39989732553805 H 0.0 **** 0.06
37196 C 12.595717545623117 49.291243451623465 57.36766618237334 C 0.0 **** -0.24
37197 H 12.665801644325356 48.25891690747249 57.70781433693185 H 0.0 **** 0.06
37198 H 12.477832189085163 49.94979529081687 58.22848978500329 H 0.0 **** 0.06
37199 H 11.735549335948097 49.399289874562264 56.7066023603561 H 0.0 **** 0.06
37200 H 13.505132514737426 49.557911738435045 56.82759372687846 H 0.0 **** 0.06
37201 C 100.98118206445154 78.28565366628806 4.1167683597743405 C 0.0 **** -0.24
37202 H 101.96005926625624 78.76443812688353 4.102120045926824 H 0.0 **** 0.06
37203 H 101.08061318819682 77.26514854318373 4.4852618155727555 H 0.0 **** 0.06
37204 H 100.57109096643849 78.26933417996918 3.1067878067179606 H 0.0 **** 0.06
37205 H 100.31306020993706 78.84506388699327 4.77087544430276 H 0.0 **** 0.06
37206 C 38.015689887601184 101.8347237929901 73.30789334545415 C 0.0 **** -0.24
37207 H 38.180525817280284 101.9977457433576 74.37284436778515 H 0.0 **** 0.06
37208 H 37.355162290859056 100.97925593468409 73.16902385943229 H 0.0 **** 0.06
37209 H 38.97003380408279 101.64198997544321 72.8173109151457 H 0.0 **** 0.06
37210 H 37.5566263759826 102.7231941579893 72.87244998930566 H 0.0 **** 0.06
37211 C 105.19531122145986 88.12469846492777 1.5048234276042365 C 0.0 **** -0.24
37212 H 104.11892816895916 87.94999335569034 1.5164612521707 H 0.0 **** 0.06
37213 H 105.39119992272165 89.18935959620066 1.632608517491775 H 0.0 **** 0.06
37214 H 105.60636101043988 87.78962850990442 0.5529905201988754 H 0.0 **** 0.06
37215 H 105.66171947470549 87.56837139829395 2.318539177528919 H 0.0 **** 0.06
37216 C 39.66981568147099 5.110525933980199 15.857232538877895 C 0.0 **** -0.24
37217 H 39.704821209197746 4.352095112697626 16.639453763794734 H 0.0 **** 0.06
37218 H 39.033268055085955 4.762347545623442 15.042964936124292 H 0.0 **** 0.06
37219 H 40.67669968551036 5.290692511873999 15.48024002794881 H 0.0 **** 0.06
37220 H 39.264222269615374 6.0360027409884225 16.266334493859972 H 0.0 **** 0.06
37221 C 0.26082980741864503 58.92237011483955 84.52541889170266 C 0.0 **** -0.24
37222 H 0.8267977019604871 59.14785596406011 83.6221608153761 H 0.0 **** 0.06
37223 H -0.0913975275433927 57.89115741306723 84.48583295149677 H 0.0 **** 0.06
37224 H -0.5933617209073532 59.59524011904247 84.596464574842 H 0.0 **** 0.06
37225 H 0.9015085369711642 59.05428711077458 85.39696256309799 H 0.0 **** 0.06
37226 C 38.17546175958631 92.91718845145311 21.687772512152787 C 0.0 **** -0.24
37227 H 38.31351407123283 92.50955120157806 22.689212557218298 H 0.0 **** 0.06
37228 H 39.131101804445635 93.2778816700013 21.307918309700405 H 0.0 **** 0.06
37229 H 37.46383903951815 93.74287769545259 21.7271068428304 H 0.0 **** 0.06
37230 H 37.79237616046029 92.13859268944634 21.02948784384917 H 0.0 **** 0.06
37231 C 46.529634772203366 56.10096432184719 106.21377818671678 C 0.0 **** -0.24
37232 H 47.06732369973852 55.21332722060396 106.54763555738492 H 0.0 **** 0.06
37233 H 46.59697608758438 56.17951804086192 105.1281786984016 H 0.0 **** 0.06
37234 H 46.973347741454404 56.98652524779277 106.67013270055507 H 0.0 **** 0.06
37235 H 45.483873758938074 56.02458031866263 106.50947914714928 H 0.0 **** 0.06
37236 C 65.82813406961918 97.3260738134451 42.40155295560568 C 0.0 **** -0.24
37237 H 66.64897311587464 97.10483852333579 43.08435232604974 H 0.0 **** 0.06
37238 H 65.20804612762987 98.11672685658667 42.82373825882466 H 0.0 **** 0.06
37239 H 65.2261128832983 96.42933003689737 42.25481910610158 H 0.0 **** 0.06
37240 H 66.23230166156281 97.65263042230066 41.44341566567474 H 0.0 **** 0.06
37241 C 7.761527902744064 42.14267639195498 15.052573208881256 C 0.0 **** -0.24
37242 H 7.737165329180215 42.751633123110224 14.14820107467898 H 0.0 **** 0.06
37243 H 6.883838540038653 42.36108320941716 15.661069377138062 H 0.0 **** 0.06
37244 H 8.663770335922436 42.37169865823813 15.619614760616827 H 0.0 **** 0.06
37245 H 7.761998671424266 41.08735637627436 14.779556393437844 H 0.0 **** 0.06
37246 C 75.54637718200394 62.18675815601347 89.43442209806946 C 0.0 **** -0.24
37247 H 74.6302887649071 61.61214220448406 89.29870092073972 H 0.0 **** 0.06
37248 H 75.29919511139849 63.24053612453332 89.5629940529081 H 0.0 **** 0.06
37249 H 76.18314295703004 62.066930368432025 88.55699149575915 H 0.0 **** 0.06
37250 H 76.07389726937816 61.825461214751044 90.31697282728366 H 0.0 **** 0.06
37251 C 77.5776040547313 51.268072541052845 2.913083661115394 C 0.0 **** -0.24
37252 H 76.6644150298153 51.2779321882463 2.3177137402014694 H 0.0 **** 0.06
37253 H 78.08867729565932 50.31405094941857 2.77814756437931 H 0.0 **** 0.06
37254 H 77.32721887918203 51.4007767332306 3.965152834352125 H 0.0 **** 0.06
37255 H 78.23072634651504 52.07919036308283 2.589199504570928 H 0.0 **** 0.06
37256 C 59.93714109300528 81.69909950418041 27.68530267738396 C 0.0 **** -0.24
37257 H 59.59761038742336 82.1285483567505 28.627112236107394 H 0.0 **** 0.06
37258 H 59.66714805431896 82.36342104708699 26.86418977666247 H 0.0 **** 0.06
37259 H 59.463618420261284 80.72743683106764 27.537003073223985 H 0.0 **** 0.06
37260 H 61.01982566876177 81.57507040767211 27.711429922363777 H 0.0 **** 0.06
37261 C 99.68306626472992 28.83153477347396 64.25552924358436 C 0.0 **** -0.24
37262 H 99.03524028213494 29.379670817413228 63.571926235749174 H 0.0 **** 0.06
37263 H 99.54275883274248 27.76052256064999 64.10765286836227 H 0.0 **** 0.06
37264 H 99.4294459531921 29.09229717835364 65.28315779979377 H 0.0 **** 0.06
37265 H 100.72264778662591 29.093120590925743 64.05943532106807 H 0.0 **** 0.06
37266 C 14.722667124262387 8.111362448760019 25.903274154049686 C 0.0 **** -0.24
37267 H 15.740181262267527 7.968918395059092 26.267031483015582 H 0.0 **** 0.06
37268 H 14.577351210506379 7.527904598013436 24.994366055927625 H 0.0 **** 0.06
37269 H 14.558601296476866 9.167833365960746 25.688797151506574 H 0.0 **** 0.06
37270 H 14.015241266988141 7.781685726495198 26.664546559802183 H 0.0 **** 0.06
37271 C 70.2497856909061 76.70478915021505 1.9029063679493987 C 0.0 **** -0.24
37272 H 69.79633511319031 75.98269221170939 1.2235674695430987 H 0.0 **** 0.06
37273 H 69.63184263843712 76.79906722662379 2.797270883715086 H 0.0 **** 0.06
37274 H 70.32281681929271 77.67335734191981 1.4077216828001298 H 0.0 **** 0.06
37275 H 71.24597372876991 76.3630631677778 2.1836294902684017 H 0.0 **** 0.06
37276 C 79.08539264740386 41.634788474007536 71.88918966459332 C 0.0 **** -0.24
37277 H 79.96323444711481 41.73080533286273 72.52751186220462 H 0.0 **** 0.06
37278 H 78.25141435952168 42.177805262174346 72.33353941578179 H 0.0 **** 0.06
37279 H 78.82205644828616 40.581765966431135 71.78921276054206 H 0.0 **** 0.06
37280 H 79.30541542039947 42.048861033559604 70.90519442726344 H 0.0 **** 0.06
37281 C 57.995071361556484 0.77688281758833 79.5942767554024 C 0.0 **** -0.24
37282 H 57.365275372010444 -0.08393915960326126 79.37157465787027 H 0.0 **** 0.06
37283 H 58.27561617487038 1.271902144796087 78.66420189836208 H 0.0 **** 0.06
37284 H 58.89414749860606 0.44420519779257006 80.11428781229108 H 0.0 **** 0.06
37285 H 57.44641179972774 1.4742816979704543 80.22635519908738 H 0.0 **** 0.06
37286 C 45.22449307184681 106.47484734910154 17.918611112700262 C 0.0 **** -0.24
37287 H 45.93961654585117 107.21533827248618 18.279094704899308 H 0.0 **** 0.06
37288 H 45.74479962663751 105.73503435847124 17.309081266475772 H 0.0 **** 0.06
37289 H 44.46135418496406 106.96992424859951 17.318685618152102 H 0.0 **** 0.06
37290 H 44.75486457055236 105.98041564683194 18.768659975364812 H 0.0 **** 0.06
37291 C 74.70800835522384 24.63145844692781 25.741862503756224 C 0.0 **** -0.24
37292 H 74.80140712891274 25.585318252929852 26.26228246592529 H 0.0 **** 0.06
37293 H 73.79285866903624 24.132268608025242 26.060991490250636 H 0.0 **** 0.06
37294 H 75.5669659969604 24.00301850974523 25.97780479010372 H 0.0 **** 0.06
37295 H 74.67045580254639 24.807248106000657 24.667266541844118 H 0.0 **** 0.06
37296 C 55.98454871869622 50.444128802874296 29.063216053614696 C 0.0 **** -0.24
37297 H 55.51484876268558 50.0427586496287 29.961371217316014 H 0.0 **** 0.06
37298 H 56.99848743543276 50.05344362795734 28.977857403987684 H 0.0 **** 0.06
37299 H 56.017146072316095 51.53131958577014 29.124748825898536 H 0.0 **** 0.06
37300 H 55.40619425064452 50.14776291855402 28.187800076664445 H 0.0 **** 0.06
37301 C 13.647170630405519 72.08860434699383 67.37474989137533 C 0.0 **** -0.24
37302 H 13.87051582563915 73.07884915130023 66.97948059979295 H 0.0 **** 0.06
37303 H 13.594875962904108 72.13527018639431 68.46262778592947 H 0.0 **** 0.06
37304 H 14.43312886822325 71.39416208419593 67.07860752253082 H 0.0 **** 0.06
37305 H 12.691029035683822 71.74636780206578 66.97872447139235 H 0.0 **** 0.06
37306 C 97.6398661207154 85.52700595248359 105.87082933970859 C 0.0 **** -0.24
37307 H 97.32594914278559 84.58804691162658 106.32706699085287 H 0.0 **** 0.06
37308 H 98.53949354616384 85.88950157757603 106.36932829239427 H 0.0 **** 0.06
37309 H 96.8436651119728 86.26461221692364 105.97475584823621 H 0.0 **** 0.06
37310 H 97.84956475378601 85.36474898004252 104.8141989299117 H 0.0 **** 0.06
37311 C 85.56707954478145 31.405181502940707 31.173074430647716 C 0.0 **** -0.24
37312 H 85.32725845964654 30.376024080915556 31.442795854117946 H 0.0 **** 0.06
37313 H 86.61967226630756 31.472511032227374 30.89805255910491 H 0.0 **** 0.06
37314 H 85.36953467785486 32.0588149394236 32.02322331987858 H 0.0 **** 0.06
37315 H 84.94925090254321 31.711329030738682 30.32842821464314 H 0.0 **** 0.06
37316 C 11.245666842079004 9.601194467823944 3.3934991025030854 C 0.0 **** -0.24
37317 H 10.571233434221156 10.396585560206319 3.076642178303075 H 0.0 **** 0.06
37318 H 11.079229707076152 8.718092324423509 2.776971735073573 H 0.0 **** 0.06
37319 H 11.052186881340305 9.357297167133595 4.438650479852015 H 0.0 **** 0.06
37320 H 12.277074414344185 9.934225361579877 3.2822942287887145 H 0.0 **** 0.06
37321 C 82.30698889547625 23.478101076018447 37.24175629055779 C 0.0 **** -0.24
37322 H 82.92412516486493 23.714904588459262 36.37526010735951 H 0.0 **** 0.06
37323 H 81.35586542826746 23.062381303904772 36.90747346367483 H 0.0 **** 0.06
37324 H 82.12447244566835 24.38649016792243 37.81680914782396 H 0.0 **** 0.06
37325 H 82.8230632225991 22.748890870161688 37.86661828970102 H 0.0 **** 0.06
37326 C 30.730461542461114 94.61367025690829 59.47005785917982 C 0.0 **** -0.24
37327 H 30.622476647708993 94.72755267859331 58.39074795902119 H 0.0 **** 0.06
37328 H 29.878457000572325 94.05934321362922 59.8638033704801 H 0.0 **** 0.06
37329 H 30.771015365135526 95.59844607585973 59.9356528665615 H 0.0 **** 0.06
37330 H 31.649973413740128 94.07056025172419 59.68711118556857 H 0.0 **** 0.06
37331 C 5.133130777876945 93.76557560509046 32.646031915048965 C 0.0 **** -0.24
37332 H 5.398830913701346 94.1407297306563 33.634863853814295 H 0.0 **** 0.06
37333 H 4.048796373128408 93.68380696004584 32.56968711257747 H 0.0 **** 0.06
37334 H 5.583239455698504 92.78350532392982 32.49789036717738 H 0.0 **** 0.06
37335 H 5.501471509122428 94.45329071707204 31.884852725810497 H 0.0 **** 0.06
37336 C 10.759502297997514 19.62826104457247 96.51001813815934 C 0.0 **** -0.24
37337 H 10.719264312316014 20.70671608955712 96.66134667547607 H 0.0 **** 0.06
37338 H 10.480884707624611 19.395719731399964 95.48202615069087 H 0.0 **** 0.06
37339 H 10.066706119448625 19.139824884516656 97.19403876633207 H 0.0 **** 0.06
37340 H 11.771547004562052 19.272828982030404 96.7013718587166 H 0.0 **** 0.06
37341 C 32.009787337278325 64.07297511757179 92.36115892707898 C 0.0 **** -0.24
37342 H 33.062113908053874 63.976626087759826 92.6280004032891 H 0.0 **** 0.06
37343 H 31.870550651734845 64.9661916235271 91.75202252275011 H 0.0 **** 0.06
37344 H 31.410527030483237 64.15420889791329 93.26814839859554 H 0.0 **** 0.06
37345 H 31.696722333200995 63.19440682670847 91.79602013688606 H 0.0 **** 0.06
37346 C 31.068210300363944 52.3307391413652 96.65524384113702 C 0.0 **** -0.24
37347 H 30.214440454086485 53.00296095374097 96.74709520811467 H 0.0 **** 0.06
37348 H 30.804088198825724 51.35269487752413 97.05846426003836 H 0.0 **** 0.06
37349 H 31.911957496703877 52.73764083465977 97.21079159998061 H 0.0 **** 0.06
37350 H 31.339199213986575 52.22981946364689 95.60474971377285 H 0.0 **** 0.06
37351 C 42.660951149128266 76.59120896611441 82.33662222283262 C 0.0 **** -0.24
37352 H 42.773456788420276 76.97321020191826 83.35157162996236 H 0.0 **** 0.06
37353 H 41.76827849340037 77.02251070151793 81.88344004926269 H 0.0 **** 0.06
37354 H 42.56526878549619 75.50563338420162 82.36667708363957 H 0.0 **** 0.06
37355 H 43.536028225976054 76.8624156485411 81.74749601368927 H 0.0 **** 0.06
37356 C 74.1528153691141 95.97177646634084 28.701837488724237 C 0.0 **** -0.24
37357 H 73.21367455783212 96.52483767571901 28.71381923248839 H 0.0 **** 0.06
37358 H 73.9953486133212 95.00131746865186 28.23036498143128 H 0.0 **** 0.06
37359 H 74.50282904704726 95.82752024067925 29.723869918101002 H 0.0 **** 0.06
37360 H 74.89740350626005 96.53423739887685 28.138724777562174 H 0.0 **** 0.06
37361 C 18.662991595608034 82.73994061566623 44.20364219756321 C 0.0 **** -0.24
37362 H 19.5467194278258 82.17703837308795 43.90261240957569 H 0.0 **** 0.06
37363 H 18.86899645068835 83.2697088629352 45.13334553862407 H 0.0 **** 0.06
37364 H 17.82874509063724 82.05443603794401 44.352551473292635 H 0.0 **** 0.06
37365 H 18.40720315068971 83.45894503108548 43.4247271160707 H 0.0 **** 0.06
37366 C 26.66614135528019 2.1288052463333145 64.89298739522066 C 0.0 **** -0.24
37367 H 26.319391712427972 2.7013364874391073 64.03265060060856 H 0.0 **** 0.06
37368 H 27.39403488973676 2.718198899260841 65.45066818399042 H 0.0 **** 0.06
37369 H 27.132309458430257 1.2051611131500977 64.55057167512372 H 0.0 **** 0.06
37370 H 25.819973932226787 1.8922381676932503 65.53719107721508 H 0.0 **** 0.06
37371 C 7.022048270196279 58.91079448717767 53.624212261858304 C 0.0 **** -0.24
37372 H 6.320841855967103 58.088798865664074 53.76851575826919 H 0.0 **** 0.06
37373 H 7.292989905717562 58.97566572430044 52.56986500264844 H 0.0 **** 0.06
37374 H 7.917345498783007 58.731752470572516 54.21962099682685 H 0.0 **** 0.06
37375 H 6.557305226669584 59.844539497697426 53.93861617545332 H 0.0 **** 0.06
37376 C 47.28197940179009 80.0030790193666 5.9940586763566195 C 0.0 **** -0.24
37377 H 47.521230324889046 80.12826725062524 4.938235010715843 H 0.0 **** 0.06
37378 H 47.195224866937124 78.94075855765823 6.223136480783333 H 0.0 **** 0.06
37379 H 46.33823750512901 80.50114065932587 6.213718663306404 H 0.0 **** 0.06
37380 H 48.07443795495199 80.44309572622763 6.599521702001368 H 0.0 **** 0.06
37381 C 18.322385974933894 34.371846463797965 81.6924728298111 C 0.0 **** -0.24
37382 H 18.886275416533977 33.43947331705482 81.72057520645967 H 0.0 **** 0.06
37383 H 17.394105273664763 34.251136835156785 82.25147899277636 H 0.0 **** 0.06
37384 H 18.094204378396682 34.62747565172475 80.65775856671166 H 0.0 **** 0.06
37385 H 18.915924726043386 35.1686827383561 82.14224333353559 H 0.0 **** 0.06
37386 C 78.10230579235082 8.45151505895015 88.76619189515753 C 0.0 **** -0.24
37387 H 78.60722244198342 9.138357847488123 89.44571592699702 H 0.0 **** 0.06
37388 H 78.84454773277156 7.908663474550849 88.18016473021527 H 0.0 **** 0.06
37389 H 77.45108778898702 9.014929623738283 88.0973511737696 H 0.0 **** 0.06
37390 H 77.50594813800038 7.743996787980905 89.34243766324369 H 0.0 **** 0.06
37391 C 1.4472743009334685 108.79474162720064 29.28858312474705 C 0.0 **** -0.24
37392 H 2.1889085224862947 108.1395660046247 29.74674507362559 H 0.0 **** 0.06
37393 H 0.656647400263302 108.19214944472782 28.841580335962846 H 0.0 **** 0.06
37394 H 1.9243914236305981 109.39945451231955 28.51727040179742 H 0.0 **** 0.06
37395 H 1.0212429696199825 109.44829390355832 30.04990793449801 H 0.0 **** 0.06
37396 C 105.79674177007485 63.62163444763516 92.8021423166487 C 0.0 **** -0.24
37397 H 105.43366634885055 63.75139662836767 93.82173574213033 H 0.0 **** 0.06
37398 H 105.88179801656344 62.557683191287026 92.57997590362228 H 0.0 **** 0.06
37399 H 106.7739613610805 64.09368129619531 92.70152737834066 H 0.0 **** 0.06
37400 H 105.09569976764135 64.08359865826299 92.10608989483192 H 0.0 **** 0.06
37401 C 93.89420744553449 63.7545934399657 95.02337921759822 C 0.0 **** -0.24
37402 H 94.07268859715941 63.694890801295 96.09802144387513 H 0.0 **** 0.06
37403 H 94.2678234957027 62.85119132896254 94.54182093394775 H 0.0 **** 0.06
37404 H 94.41130235889533 64.62446788955116 94.61819156783794 H 0.0 **** 0.06
37405 H 92.82379872344188 63.85006090087481 94.83872573735968 H 0.0 **** 0.06
37406 C 52.56931941941275 76.78192399912982 107.69141002039174 C 0.0 **** -0.24
37407 H 51.80381952683905 77.15247416923899 108.37327820756924 H 0.0 **** 0.06
37408 H 53.02321614261126 77.62073042838131 107.16317020883459 H 0.0 **** 0.06
37409 H 52.114566985859994 76.10120419239189 106.97100835900454 H 0.0 **** 0.06
37410 H 53.334769030002576 76.25150864276871 108.25805645971268 H 0.0 **** 0.06
37411 C 4.779145824635776 64.10856705037241 49.86437411272382 C 0.0 **** -0.24
37412 H 4.872441829704371 64.24244570717462 48.78670204406847 H 0.0 **** 0.06
37413 H 3.7958347019987 64.45130724246116 50.189177464632756 H 0.0 **** 0.06
37414 H 5.55179682689473 64.68609975149849 50.37054707857389 H 0.0 **** 0.06
37415 H 4.894922787585671 63.0526914964515 50.110356379498135 H 0.0 **** 0.06
37416 C 94.8203727600222 100.67725585563088 92.26193771021246 C 0.0 **** -0.24
37417 H 95.5316807729329 101.17630345280949 92.9196778675186 H 0.0 **** 0.06
37418 H 94.83288894439352 99.60481861002853 92.45939020992141 H 0.0 **** 0.06
37419 H 95.09624334624715 100.85945199250312 91.22354679554797 H 0.0 **** 0.06
37420 H 93.81977641856682 101.06853376996997 92.44556037298999 H 0.0 **** 0.06
37421 C 49.814013561876436 58.50615360162763 104.78849088512099 C 0.0 **** -0.24
37422 H 50.04126743819512 58.347671246981434 103.73361609534665 H 0.0 **** 0.06
37423 H 48.78679462096915 58.856278730014594 104.8896163921756 H 0.0 **** 0.06
37424 H 50.495156014839864 59.251318802381434 105.19875724505805 H 0.0 **** 0.06
37425 H 49.932879464115985 57.56713695539537 105.32994394397407 H 0.0 **** 0.06
37426 C 84.3069022223152 32.38064549840547 22.596892509361027 C 0.0 **** -0.24
37427 H 83.81386309564296 32.092175351894696 23.525178629942445 H 0.0 **** 0.06
37428 H 85.28619681797258 31.904253131808986 22.54324386430534 H 0.0 **** 0.06
37429 H 84.4266315364875 33.46331230555484 22.570927893755766 H 0.0 **** 0.06
37430 H 83.70017679033835 32.061645571357076 21.749641655822387 H 0.0 **** 0.06
37431 C 30.0964565964739 29.006935991009897 16.090711232723066 C 0.0 **** -0.24
37432 H 29.276747130499473 28.293782420180747 16.000866189546116 H 0.0 **** 0.06
37433 H 30.91331276477365 28.704423709736233 15.434078805986388 H 0.0 **** 0.06
37434 H 30.447819561694757 29.0278748613093 17.122373177406985 H 0.0 **** 0.06
37435 H 29.74711438884748 29.99812853216929 15.80462381264229 H 0.0 **** 0.06
37436 C 91.05697696183084 63.46803932432144 45.59438486514259 C 0.0 **** -0.24
37437 H 90.26214074445858 63.19182271604018 46.28742564163372 H 0.0 **** 0.06
37438 H 91.40406410855466 62.5792348246228 45.06669002339129 H 0.0 **** 0.06
37439 H 91.8860427346318 63.90813937823347 46.149544910468364 H 0.0 **** 0.06
37440 H 90.67632810548686 64.19246493885467 44.87443437757997 H 0.0 **** 0.06
37441 C 86.81941764993192 8.923875363616789 44.83331655274968 C 0.0 **** -0.24
37442 H 87.51170103061523 8.228838571154578 45.30784819561885 H 0.0 **** 0.06
37443 H 87.37778286000156 9.756336928716527 44.4032958020901 H 0.0 **** 0.06
37444 H 86.11825000083053 9.301892851238112 45.57775356803142 H 0.0 **** 0.06
37445 H 86.26967088491833 8.408720370775004 44.04528889829343 H 0.0 **** 0.06
37446 C 18.40090051982347 48.87921856351619 33.012797005770665 C 0.0 **** -0.24
37447 H 17.765694718576515 49.306215071409554 32.23592869894745 H 0.0 **** 0.06
37448 H 18.12776732833798 49.30265423923481 33.97874998745095 H 0.0 **** 0.06
37449 H 19.444482462324213 49.11017063495177 32.795906090323626 H 0.0 **** 0.06
37450 H 18.265934036451256 47.79820996573676 33.037639650496516 H 0.0 **** 0.06
37451 C 58.77199519020938 6.524797811298981 54.156626567591815 C 0.0 **** -0.24
37452 H 57.8465309092133 6.297867646936453 54.68500924140839 H 0.0 **** 0.06
37453 H 59.513774097809915 6.894352000697779 54.8657489572149 H 0.0 **** 0.06
37454 H 58.581488786301755 7.285151678127605 53.40017566636898 H 0.0 **** 0.06
37455 H 59.14754182789794 5.620402956052629 53.67664796081314 H 0.0 **** 0.06
37456 C 59.95559996448996 67.97046381465836 90.79138987247305 C 0.0 **** -0.24
37457 H 60.417342990294685 67.08228296322855 90.35977905473214 H 0.0 **** 0.06
37458 H 60.1352401858052 68.82593927329174 90.14044836294022 H 0.0 **** 0.06
37459 H 60.38843420148969 68.1629742555948 91.77326970466504 H 0.0 **** 0.06
37460 H 58.882694576428605 67.80884897559324 90.89200481646736 H 0.0 **** 0.06
37461 C 44.77776501514808 61.34508490020575 68.03602997234928 C 0.0 **** -0.24
37462 H 45.594488593557514 60.91749553795307 68.61769540082364 H 0.0 **** 0.06
37463 H 44.64684487978079 60.771483788151 67.11866232792065 H 0.0 **** 0.06
37464 H 45.0102576659925 62.38063985454782 67.78904454413696 H 0.0 **** 0.06
37465 H 43.85821149603373 61.30852519460791 68.62128676426008 H 0.0 **** 0.06
37466 C 100.65255135532554 14.687533803990082 6.87751484591584 C 0.0 **** -0.24
37467 H 101.13928832392216 15.517284522204449 7.39074835638209 H 0.0 **** 0.06
37468 H 100.8835619131775 14.734509441168345 5.8133183684438166 H 0.0 **** 0.06
37469 H 99.57470172963527 14.754559659930027 7.020074917664985 H 0.0 **** 0.06
37470 H 101.01544553275647 13.74484136849712 7.286957778349063 H 0.0 **** 0.06
37471 C 33.46623850009837 105.31283625492213 25.592167886128152 C 0.0 **** -0.24
37472 H 33.42046406484445 104.41569981885947 26.20925185919114 H 0.0 **** 0.06
37473 H 33.073570298218556 106.16014726255074 26.153385687385594 H 0.0 **** 0.06
37474 H 32.87103326410016 105.16536291307513 24.69138154151338 H 0.0 **** 0.06
37475 H 34.50202403009541 105.50896329213145 25.314412110003786 H 0.0 **** 0.06
37476 C 76.54144672191086 16.320003297909352 80.64071837067983 C 0.0 **** -0.24
37477 H 77.29799465286848 16.919440801803148 81.14645210141647 H 0.0 **** 0.06
37478 H 76.87766520280273 15.283602773964901 80.58289155996185 H 0.0 **** 0.06
37479 H 76.38376854931008 16.707749379115285 79.63408123468825 H 0.0 **** 0.06
37480 H 75.60709860594702 16.368069307722124 81.19838663998783 H 0.0 **** 0.06
37481 C 91.72759910791005 23.011116317722752 81.70770155959531 C 0.0 **** -0.24
37482 H 92.50646190637025 23.756803044348317 81.54919363070948 H 0.0 **** 0.06
37483 H 90.82732075790786 23.30658798415763 81.16849738591122 H 0.0 **** 0.06
37484 H 91.50766520357845 22.937823562468736 82.77238693146498 H 0.0 **** 0.06
37485 H 92.0713767874192 22.044425879097105 81.33907809647721 H 0.0 **** 0.06
37486 C 6.839767263893767 32.0052611454696 93.8491947087171 C 0.0 **** -0.24
37487 H 7.751668903040983 31.76691381549179 93.3021017901072 H 0.0 **** 0.06
37488 H 6.004151067522203 32.07032186200232 93.1512731646435 H 0.0 **** 0.06
37489 H 6.961641389129202 32.9595168647777 94.36029585342092 H 0.0 **** 0.06
37490 H 6.641893753399689 31.223020243847998 94.58255956776469 H 0.0 **** 0.06
37491 C 42.34739530430579 65.14164407248126 54.635394199642604 C 0.0 **** -0.24
37492 H 41.68576120655388 64.3152394744506 54.375676091675075 H 0.0 **** 0.06
37493 H 43.05676160719133 64.8139287451558 55.39555461784752 H 0.0 **** 0.06
37494 H 41.75570367148248 65.97166824077084 55.023651469971725 H 0.0 **** 0.06
37495 H 42.88907410001599 65.4663779228515 53.74732060340108 H 0.0 **** 0.06
37496 C 67.71903421063628 30.475913576143576 103.92475109146073 C 0.0 **** -0.24
37497 H 68.47051047048865 30.21049701378466 104.66831965506856 H 0.0 **** 0.06
37498 H 67.89251400864153 29.90366296536977 103.0135081374415 H 0.0 **** 0.06
37499 H 67.78854266302739 31.54123562363047 103.7036125167406 H 0.0 **** 0.06
37500 H 66.72686609407643 30.249109921288678 104.31351606642386 H 0.0 **** 0.06
@<TRIPOS>BOND
1 1 2 28
2 1 3 28
3 1 4 28
4 1 5 28
5 6 7 28
6 6 8 28
7 6 9 28
8 6 10 28
9 11 12 28
10 11 13 28
11 11 14 28
12 11 15 28
13 16 17 28
14 16 18 28
15 16 19 28
16 16 20 28
17 21 22 28
18 21 23 28
19 21 24 28
20 21 25 28
21 26 27 28
22 26 28 28
23 26 29 28
24 26 30 28
25 31 32 28
26 31 33 28
27 31 34 28
28 31 35 28
29 36 37 28
30 36 38 28
31 36 39 28
32 36 40 28
33 41 42 28
34 41 43 28
35 41 44 28
36 41 45 28
37 46 47 28
38 46 48 28
39 46 49 28
40 46 50 28
41 51 52 28
42 51 53 28
43 51 54 28
44 51 55 28
45 56 57 28
46 56 58 28
47 56 59 28
48 56 60 28
49 61 62 28
50 61 63 28
51 61 64 28
52 61 65 28
53 66 67 28
54 66 68 28
55 66 69 28
56 66 70 28
57 71 72 28
58 71 73 28
59 71 74 28
60 71 75 28
61 76 77 28
62 76 78 28
63 76 79 28
64 76 80 28
65 81 82 28
66 81 83 28
67 81 84 28
68 81 85 28
69 86 87 28
70 86 88 28
71 86 89 28
72 86 90 28
73 91 92 28
74 91 93 28
75 91 94 28
76 91 95 28
77 96 97 28
78 96 98 28
79 96 99 28
80 96 100 28
81 101 102 28
82 101 103 28
83 101 104 28
84 101 105 28
85 106 107 28
86 106 108 28
87 106 109 28
88 106 110 28
89 111 112 28
90 111 113 28
91 111 114 28
92 111 115 28
93 116 117 28
94 116 118 28
95 116 119 28
96 116 120 28
97 121 122 28
98 121 123 28
99 121 124 28
100 121 125 28
101 126 127 28
102 126 128 28
103 126 129 28
104 126 130 28
105 131 132 28
106 131 133 28
107 131 134 28
108 131 135 28
109 136 137 28
110 136 138 28
111 136 139 28
112 136 140 28
113 141 142 28
114 141 143 28
115 141 144 28
116 141 145 28
117 146 147 28
118 146 148 28
119 146 149 28
120 146 150 28
121 151 152 28
122 151 153 28
123 151 154 28
124 151 155 28
125 156 157 28
126 156 158 28
127 156 159 28
128 156 160 28
129 161 162 28
130 161 163 28
131 161 164 28
132 161 165 28
133 166 167 28
134 166 168 28
135 166 169 28
136 166 170 28
137 171 172 28
138 171 173 28
139 171 174 28
140 171 175 28
141 176 177 28
142 176 178 28
143 176 179 28
144 176 180 28
145 181 182 28
146 181 183 28
147 181 184 28
148 181 185 28
149 186 187 28
150 186 188 28
151 186 189 28
152 186 190 28
153 191 192 28
154 191 193 28
155 191 194 28
156 191 195 28
157 196 197 28
158 196 198 28
159 196 199 28
160 196 200 28
161 201 202 28
162 201 203 28
163 201 204 28
164 201 205 28
165 206 207 28
166 206 208 28
167 206 209 28
168 206 210 28
169 211 212 28
170 211 213 28
171 211 214 28
172 211 215 28
173 216 217 28
174 216 218 28
175 216 219 28
176 216 220 28
177 221 222 28
178 221 223 28
179 221 224 28
180 221 225 28
181 226 227 28
182 226 228 28
183 226 229 28
184 226 230 28
185 231 232 28
186 231 233 28
187 231 234 28
188 231 235 28
189 236 237 28
190 236 238 28
191 236 239 28
192 236 240 28
193 241 242 28
194 241 243 28
195 241 244 28
196 241 245 28
197 246 247 28
198 246 248 28
199 246 249 28
200 246 250 28
201 251 252 28
202 251 253 28
203 251 254 28
204 251 255 28
205 256 257 28
206 256 258 28
207 256 259 28
208 256 260 28
209 261 262 28
210 261 263 28
211 261 264 28
212 261 265 28
213 266 267 28
214 266 268 28
215 266 269 28
216 266 270 28
217 271 272 28
218 271 273 28
219 271 274 28
220 271 275 28
221 276 277 28
222 276 278 28
223 276 279 28
224 276 280 28
225 281 282 28
226 281 283 28
227 281 284 28
228 281 285 28
229 286 287 28
230 286 288 28
231 286 289 28
232 286 290 28
233 291 292 28
234 291 293 28
235 291 294 28
236 291 295 28
237 296 297 28
238 296 298 28
239 296 299 28
240 296 300 28
241 301 302 28
242 301 303 28
243 301 304 28
244 301 305 28
245 306 307 28
246 306 308 28
247 306 309 28
248 306 310 28
249 311 312 28
250 311 313 28
251 311 314 28
252 311 315 28
253 316 317 28
254 316 318 28
255 316 319 28
256 316 320 28
257 321 322 28
258 321 323 28
259 321 324 28
260 321 325 28
261 326 327 28
262 326 328 28
263 326 329 28
264 326 330 28
265 331 332 28
266 331 333 28
267 331 334 28
268 331 335 28
269 336 337 28
270 336 338 28
271 336 339 28
272 336 340 28
273 341 342 28
274 341 343 28
275 341 344 28
276 341 345 28
277 346 347 28
278 346 348 28
279 346 349 28
280 346 350 28
281 351 352 28
282 351 353 28
283 351 354 28
284 351 355 28
285 356 357 28
286 356 358 28
287 356 359 28
288 356 360 28
289 361 362 28
290 361 363 28
291 361 364 28
292 361 365 28
293 366 367 28
294 366 368 28
295 366 369 28
296 366 370 28
297 371 372 28
298 371 373 28
299 371 374 28
300 371 375 28
301 376 377 28
302 376 378 28
303 376 379 28
304 376 380 28
305 381 382 28
306 381 383 28
307 381 384 28
308 381 385 28
309 386 387 28
310 386 388 28
311 386 389 28
312 386 390 28
313 391 392 28
314 391 393 28
315 391 394 28
316 391 395 28
317 396 397 28
318 396 398 28
319 396 399 28
320 396 400 28
321 401 402 28
322 401 403 28
323 401 404 28
324 401 405 28
325 406 407 28
326 406 408 28
327 406 409 28
328 406 410 28
329 411 412 28
330 411 413 28
331 411 414 28
332 411 415 28
333 416 417 28
334 416 418 28
335 416 419 28
336 416 420 28
337 421 422 28
338 421 423 28
339 421 424 28
340 421 425 28
341 426 427 28
342 426 428 28
343 426 429 28
344 426 430 28
345 431 432 28
346 431 433 28
347 431 434 28
348 431 435 28
349 436 437 28
350 436 438 28
351 436 439 28
352 436 440 28
353 441 442 28
354 441 443 28
355 441 444 28
356 441 445 28
357 446 447 28
358 446 448 28
359 446 449 28
360 446 450 28
361 451 452 28
362 451 453 28
363 451 454 28
364 451 455 28
365 456 457 28
366 456 458 28
367 456 459 28
368 456 460 28
369 461 462 28
370 461 463 28
371 461 464 28
372 461 465 28
373 466 467 28
374 466 468 28
375 466 469 28
376 466 470 28
377 471 472 28
378 471 473 28
379 471 474 28
380 471 475 28
381 476 477 28
382 476 478 28
383 476 479 28
384 476 480 28
385 481 482 28
386 481 483 28
387 481 484 28
388 481 485 28
389 486 487 28
390 486 488 28
391 486 489 28
392 486 490 28
393 491 492 28
394 491 493 28
395 491 494 28
396 491 495 28
397 496 497 28
398 496 498 28
399 496 499 28
400 496 500 28
401 501 502 28
402 501 503 28
403 501 504 28
404 501 505 28
405 506 507 28
406 506 508 28
407 506 509 28
408 506 510 28
409 511 512 28
410 511 513 28
411 511 514 28
412 511 515 28
413 516 517 28
414 516 518 28
415 516 519 28
416 516 520 28
417 521 522 28
418 521 523 28
419 521 524 28
420 521 525 28
421 526 527 28
422 526 528 28
423 526 529 28
424 526 530 28
425 531 532 28
426 531 533 28
427 531 534 28
428 531 535 28
429 536 537 28
430 536 538 28
431 536 539 28
432 536 540 28
433 541 542 28
434 541 543 28
435 541 544 28
436 541 545 28
437 546 547 28
438 546 548 28
439 546 549 28
440 546 550 28
441 551 552 28
442 551 553 28
443 551 554 28
444 551 555 28
445 556 557 28
446 556 558 28
447 556 559 28
448 556 560 28
449 561 562 28
450 561 563 28
451 561 564 28
452 561 565 28
453 566 567 28
454 566 568 28
455 566 569 28
456 566 570 28
457 571 572 28
458 571 573 28
459 571 574 28
460 571 575 28
461 576 577 28
462 576 578 28
463 576 579 28
464 576 580 28
465 581 582 28
466 581 583 28
467 581 584 28
468 581 585 28
469 586 587 28
470 586 588 28
471 586 589 28
472 586 590 28
473 591 592 28
474 591 593 28
475 591 594 28
476 591 595 28
477 596 597 28
478 596 598 28
479 596 599 28
480 596 600 28
481 601 602 28
482 601 603 28
483 601 604 28
484 601 605 28
485 606 607 28
486 606 608 28
487 606 609 28
488 606 610 28
489 611 612 28
490 611 613 28
491 611 614 28
492 611 615 28
493 616 617 28
494 616 618 28
495 616 619 28
496 616 620 28
497 621 622 28
498 621 623 28
499 621 624 28
500 621 625 28
501 626 627 28
502 626 628 28
503 626 629 28
504 626 630 28
505 631 632 28
506 631 633 28
507 631 634 28
508 631 635 28
509 636 637 28
510 636 638 28
511 636 639 28
512 636 640 28
513 641 642 28
514 641 643 28
515 641 644 28
516 641 645 28
517 646 647 28
518 646 648 28
519 646 649 28
520 646 650 28
521 651 652 28
522 651 653 28
523 651 654 28
524 651 655 28
525 656 657 28
526 656 658 28
527 656 659 28
528 656 660 28
529 661 662 28
530 661 663 28
531 661 664 28
532 661 665 28
533 666 667 28
534 666 668 28
535 666 669 28
536 666 670 28
537 671 672 28
538 671 673 28
539 671 674 28
540 671 675 28
541 676 677 28
542 676 678 28
543 676 679 28
544 676 680 28
545 681 682 28
546 681 683 28
547 681 684 28
548 681 685 28
549 686 687 28
550 686 688 28
551 686 689 28
552 686 690 28
553 691 692 28
554 691 693 28
555 691 694 28
556 691 695 28
557 696 697 28
558 696 698 28
559 696 699 28
560 696 700 28
561 701 702 28
562 701 703 28
563 701 704 28
564 701 705 28
565 706 707 28
566 706 708 28
567 706 709 28
568 706 710 28
569 711 712 28
570 711 713 28
571 711 714 28
572 711 715 28
573 716 717 28
574 716 718 28
575 716 719 28
576 716 720 28
577 721 722 28
578 721 723 28
579 721 724 28
580 721 725 28
581 726 727 28
582 726 728 28
583 726 729 28
584 726 730 28
585 731 732 28
586 731 733 28
587 731 734 28
588 731 735 28
589 736 737 28
590 736 738 28
591 736 739 28
592 736 740 28
593 741 742 28
594 741 743 28
595 741 744 28
596 741 745 28
597 746 747 28
598 746 748 28
599 746 749 28
600 746 750 28
601 751 752 28
602 751 753 28
603 751 754 28
604 751 755 28
605 756 757 28
606 756 758 28
607 756 759 28
608 756 760 28
609 761 762 28
610 761 763 28
611 761 764 28
612 761 765 28
613 766 767 28
614 766 768 28
615 766 769 28
616 766 770 28
617 771 772 28
618 771 773 28
619 771 774 28
620 771 775 28
621 776 777 28
622 776 778 28
623 776 779 28
624 776 780 28
625 781 782 28
626 781 783 28
627 781 784 28
628 781 785 28
629 786 787 28
630 786 788 28
631 786 789 28
632 786 790 28
633 791 792 28
634 791 793 28
635 791 794 28
636 791 795 28
637 796 797 28
638 796 798 28
639 796 799 28
640 796 800 28
641 801 802 28
642 801 803 28
643 801 804 28
644 801 805 28
645 806 807 28
646 806 808 28
647 806 809 28
648 806 810 28
649 811 812 28
650 811 813 28
651 811 814 28
652 811 815 28
653 816 817 28
654 816 818 28
655 816 819 28
656 816 820 28
657 821 822 28
658 821 823 28
659 821 824 28
660 821 825 28
661 826 827 28
662 826 828 28
663 826 829 28
664 826 830 28
665 831 832 28
666 831 833 28
667 831 834 28
668 831 835 28
669 836 837 28
670 836 838 28
671 836 839 28
672 836 840 28
673 841 842 28
674 841 843 28
675 841 844 28
676 841 845 28
677 846 847 28
678 846 848 28
679 846 849 28
680 846 850 28
681 851 852 28
682 851 853 28
683 851 854 28
684 851 855 28
685 856 857 28
686 856 858 28
687 856 859 28
688 856 860 28
689 861 862 28
690 861 863 28
691 861 864 28
692 861 865 28
693 866 867 28
694 866 868 28
695 866 869 28
696 866 870 28
697 871 872 28
698 871 873 28
699 871 874 28
700 871 875 28
701 876 877 28
702 876 878 28
703 876 879 28
704 876 880 28
705 881 882 28
706 881 883 28
707 881 884 28
708 881 885 28
709 886 887 28
710 886 888 28
711 886 889 28
712 886 890 28
713 891 892 28
714 891 893 28
715 891 894 28
716 891 895 28
717 896 897 28
718 896 898 28
719 896 899 28
720 896 900 28
721 901 902 28
722 901 903 28
723 901 904 28
724 901 905 28
725 906 907 28
726 906 908 28
727 906 909 28
728 906 910 28
729 911 912 28
730 911 913 28
731 911 914 28
732 911 915 28
733 916 917 28
734 916 918 28
735 916 919 28
736 916 920 28
737 921 922 28
738 921 923 28
739 921 924 28
740 921 925 28
741 926 927 28
742 926 928 28
743 926 929 28
744 926 930 28
745 931 932 28
746 931 933 28
747 931 934 28
748 931 935 28
749 936 937 28
750 936 938 28
751 936 939 28
752 936 940 28
753 941 942 28
754 941 943 28
755 941 944 28
756 941 945 28
757 946 947 28
758 946 948 28
759 946 949 28
760 946 950 28
761 951 952 28
762 951 953 28
763 951 954 28
764 951 955 28
765 956 957 28
766 956 958 28
767 956 959 28
768 956 960 28
769 961 962 28
770 961 963 28
771 961 964 28
772 961 965 28
773 966 967 28
774 966 968 28
775 966 969 28
776 966 970 28
777 971 972 28
778 971 973 28
779 971 974 28
780 971 975 28
781 976 977 28
782 976 978 28
783 976 979 28
784 976 980 28
785 981 982 28
786 981 983 28
787 981 984 28
788 981 985 28
789 986 987 28
790 986 988 28
791 986 989 28
792 986 990 28
793 991 992 28
794 991 993 28
795 991 994 28
796 991 995 28
797 996 997 28
798 996 998 28
799 996 999 28
800 996 1000 28
801 1001 1002 28
802 1001 1003 28
803 1001 1004 28
804 1001 1005 28
805 1006 1007 28
806 1006 1008 28
807 1006 1009 28
808 1006 1010 28
809 1011 1012 28
810 1011 1013 28
811 1011 1014 28
812 1011 1015 28
813 1016 1017 28
814 1016 1018 28
815 1016 1019 28
816 1016 1020 28
817 1021 1022 28
818 1021 1023 28
819 1021 1024 28
820 1021 1025 28
821 1026 1027 28
822 1026 1028 28
823 1026 1029 28
824 1026 1030 28
825 1031 1032 28
826 1031 1033 28
827 1031 1034 28
828 1031 1035 28
829 1036 1037 28
830 1036 1038 28
831 1036 1039 28
832 1036 1040 28
833 1041 1042 28
834 1041 1043 28
835 1041 1044 28
836 1041 1045 28
837 1046 1047 28
838 1046 1048 28
839 1046 1049 28
840 1046 1050 28
841 1051 1052 28
842 1051 1053 28
843 1051 1054 28
844 1051 1055 28
845 1056 1057 28
846 1056 1058 28
847 1056 1059 28
848 1056 1060 28
849 1061 1062 28
850 1061 1063 28
851 1061 1064 28
852 1061 1065 28
853 1066 1067 28
854 1066 1068 28
855 1066 1069 28
856 1066 1070 28
857 1071 1072 28
858 1071 1073 28
859 1071 1074 28
860 1071 1075 28
861 1076 1077 28
862 1076 1078 28
863 1076 1079 28
864 1076 1080 28
865 1081 1082 28
866 1081 1083 28
867 1081 1084 28
868 1081 1085 28
869 1086 1087 28
870 1086 1088 28
871 1086 1089 28
872 1086 1090 28
873 1091 1092 28
874 1091 1093 28
875 1091 1094 28
876 1091 1095 28
877 1096 1097 28
878 1096 1098 28
879 1096 1099 28
880 1096 1100 28
881 1101 1102 28
882 1101 1103 28
883 1101 1104 28
884 1101 1105 28
885 1106 1107 28
886 1106 1108 28
887 1106 1109 28
888 1106 1110 28
889 1111 1112 28
890 1111 1113 28
891 1111 1114 28
892 1111 1115 28
893 1116 1117 28
894 1116 1118 28
895 1116 1119 28
896 1116 1120 28
897 1121 1122 28
898 1121 1123 28
899 1121 1124 28
900 1121 1125 28
901 1126 1127 28
902 1126 1128 28
903 1126 1129 28
904 1126 1130 28
905 1131 1132 28
906 1131 1133 28
907 1131 1134 28
908 1131 1135 28
909 1136 1137 28
910 1136 1138 28
911 1136 1139 28
912 1136 1140 28
913 1141 1142 28
914 1141 1143 28
915 1141 1144 28
916 1141 1145 28
917 1146 1147 28
918 1146 1148 28
919 1146 1149 28
920 1146 1150 28
921 1151 1152 28
922 1151 1153 28
923 1151 1154 28
924 1151 1155 28
925 1156 1157 28
926 1156 1158 28
927 1156 1159 28
928 1156 1160 28
929 1161 1162 28
930 1161 1163 28
931 1161 1164 28
932 1161 1165 28
933 1166 1167 28
934 1166 1168 28
935 1166 1169 28
936 1166 1170 28
937 1171 1172 28
938 1171 1173 28
939 1171 1174 28
940 1171 1175 28
941 1176 1177 28
942 1176 1178 28
943 1176 1179 28
944 1176 1180 28
945 1181 1182 28
946 1181 1183 28
947 1181 1184 28
948 1181 1185 28
949 1186 1187 28
950 1186 1188 28
951 1186 1189 28
952 1186 1190 28
953 1191 1192 28
954 1191 1193 28
955 1191 1194 28
956 1191 1195 28
957 1196 1197 28
958 1196 1198 28
959 1196 1199 28
960 1196 1200 28
961 1201 1202 28
962 1201 1203 28
963 1201 1204 28
964 1201 1205 28
965 1206 1207 28
966 1206 1208 28
967 1206 1209 28
968 1206 1210 28
969 1211 1212 28
970 1211 1213 28
971 1211 1214 28
972 1211 1215 28
973 1216 1217 28
974 1216 1218 28
975 1216 1219 28
976 1216 1220 28
977 1221 1222 28
978 1221 1223 28
979 1221 1224 28
980 1221 1225 28
981 1226 1227 28
982 1226 1228 28
983 1226 1229 28
984 1226 1230 28
985 1231 1232 28
986 1231 1233 28
987 1231 1234 28
988 1231 1235 28
989 1236 1237 28
990 1236 1238 28
991 1236 1239 28
992 1236 1240 28
993 1241 1242 28
994 1241 1243 28
995 1241 1244 28
996 1241 1245 28
997 1246 1247 28
998 1246 1248 28
999 1246 1249 28
1000 1246 1250 28
1001 1251 1252 28
1002 1251 1253 28
1003 1251 1254 28
1004 1251 1255 28
1005 1256 1257 28
1006 1256 1258 28
1007 1256 1259 28
1008 1256 1260 28
1009 1261 1262 28
1010 1261 1263 28
1011 1261 1264 28
1012 1261 1265 28
1013 1266 1267 28
1014 1266 1268 28
1015 1266 1269 28
1016 1266 1270 28
1017 1271 1272 28
1018 1271 1273 28
1019 1271 1274 28
1020 1271 1275 28
1021 1276 1277 28
1022 1276 1278 28
1023 1276 1279 28
1024 1276 1280 28
1025 1281 1282 28
1026 1281 1283 28
1027 1281 1284 28
1028 1281 1285 28
1029 1286 1287 28
1030 1286 1288 28
1031 1286 1289 28
1032 1286 1290 28
1033 1291 1292 28
1034 1291 1293 28
1035 1291 1294 28
1036 1291 1295 28
1037 1296 1297 28
1038 1296 1298 28
1039 1296 1299 28
1040 1296 1300 28
1041 1301 1302 28
1042 1301 1303 28
1043 1301 1304 28
1044 1301 1305 28
1045 1306 1307 28
1046 1306 1308 28
1047 1306 1309 28
1048 1306 1310 28
1049 1311 1312 28
1050 1311 1313 28
1051 1311 1314 28
1052 1311 1315 28
1053 1316 1317 28
1054 1316 1318 28
1055 1316 1319 28
1056 1316 1320 28
1057 1321 1322 28
1058 1321 1323 28
1059 1321 1324 28
1060 1321 1325 28
1061 1326 1327 28
1062 1326 1328 28
1063 1326 1329 28
1064 1326 1330 28
1065 1331 1332 28
1066 1331 1333 28
1067 1331 1334 28
1068 1331 1335 28
1069 1336 1337 28
1070 1336 1338 28
1071 1336 1339 28
1072 1336 1340 28
1073 1341 1342 28
1074 1341 1343 28
1075 1341 1344 28
1076 1341 1345 28
1077 1346 1347 28
1078 1346 1348 28
1079 1346 1349 28
1080 1346 1350 28
1081 1351 1352 28
1082 1351 1353 28
1083 1351 1354 28
1084 1351 1355 28
1085 1356 1357 28
1086 1356 1358 28
1087 1356 1359 28
1088 1356 1360 28
1089 1361 1362 28
1090 1361 1363 28
1091 1361 1364 28
1092 1361 1365 28
1093 1366 1367 28
1094 1366 1368 28
1095 1366 1369 28
1096 1366 1370 28
1097 1371 1372 28
1098 1371 1373 28
1099 1371 1374 28
1100 1371 1375 28
1101 1376 1377 28
1102 1376 1378 28
1103 1376 1379 28
1104 1376 1380 28
1105 1381 1382 28
1106 1381 1383 28
1107 1381 1384 28
1108 1381 1385 28
1109 1386 1387 28
1110 1386 1388 28
1111 1386 1389 28
1112 1386 1390 28
1113 1391 1392 28
1114 1391 1393 28
1115 1391 1394 28
1116 1391 1395 28
1117 1396 1397 28
1118 1396 1398 28
1119 1396 1399 28
1120 1396 1400 28
1121 1401 1402 28
1122 1401 1403 28
1123 1401 1404 28
1124 1401 1405 28
1125 1406 1407 28
1126 1406 1408 28
1127 1406 1409 28
1128 1406 1410 28
1129 1411 1412 28
1130 1411 1413 28
1131 1411 1414 28
1132 1411 1415 28
1133 1416 1417 28
1134 1416 1418 28
1135 1416 1419 28
1136 1416 1420 28
1137 1421 1422 28
1138 1421 1423 28
1139 1421 1424 28
1140 1421 1425 28
1141 1426 1427 28
1142 1426 1428 28
1143 1426 1429 28
1144 1426 1430 28
1145 1431 1432 28
1146 1431 1433 28
1147 1431 1434 28
1148 1431 1435 28
1149 1436 1437 28
1150 1436 1438 28
1151 1436 1439 28
1152 1436 1440 28
1153 1441 1442 28
1154 1441 1443 28
1155 1441 1444 28
1156 1441 1445 28
1157 1446 1447 28
1158 1446 1448 28
1159 1446 1449 28
1160 1446 1450 28
1161 1451 1452 28
1162 1451 1453 28
1163 1451 1454 28
1164 1451 1455 28
1165 1456 1457 28
1166 1456 1458 28
1167 1456 1459 28
1168 1456 1460 28
1169 1461 1462 28
1170 1461 1463 28
1171 1461 1464 28
1172 1461 1465 28
1173 1466 1467 28
1174 1466 1468 28
1175 1466 1469 28
1176 1466 1470 28
1177 1471 1472 28
1178 1471 1473 28
1179 1471 1474 28
1180 1471 1475 28
1181 1476 1477 28
1182 1476 1478 28
1183 1476 1479 28
1184 1476 1480 28
1185 1481 1482 28
1186 1481 1483 28
1187 1481 1484 28
1188 1481 1485 28
1189 1486 1487 28
1190 1486 1488 28
1191 1486 1489 28
1192 1486 1490 28
1193 1491 1492 28
1194 1491 1493 28
1195 1491 1494 28
1196 1491 1495 28
1197 1496 1497 28
1198 1496 1498 28
1199 1496 1499 28
1200 1496 1500 28
1201 1501 1502 28
1202 1501 1503 28
1203 1501 1504 28
1204 1501 1505 28
1205 1506 1507 28
1206 1506 1508 28
1207 1506 1509 28
1208 1506 1510 28
1209 1511 1512 28
1210 1511 1513 28
1211 1511 1514 28
1212 1511 1515 28
1213 1516 1517 28
1214 1516 1518 28
1215 1516 1519 28
1216 1516 1520 28
1217 1521 1522 28
1218 1521 1523 28
1219 1521 1524 28
1220 1521 1525 28
1221 1526 1527 28
1222 1526 1528 28
1223 1526 1529 28
1224 1526 1530 28
1225 1531 1532 28
1226 1531 1533 28
1227 1531 1534 28
1228 1531 1535 28
1229 1536 1537 28
1230 1536 1538 28
1231 1536 1539 28
1232 1536 1540 28
1233 1541 1542 28
1234 1541 1543 28
1235 1541 1544 28
1236 1541 1545 28
1237 1546 1547 28
1238 1546 1548 28
1239 1546 1549 28
1240 1546 1550 28
1241 1551 1552 28
1242 1551 1553 28
1243 1551 1554 28
1244 1551 1555 28
1245 1556 1557 28
1246 1556 1558 28
1247 1556 1559 28
1248 1556 1560 28
1249 1561 1562 28
1250 1561 1563 28
1251 1561 1564 28
1252 1561 1565 28
1253 1566 1567 28
1254 1566 1568 28
1255 1566 1569 28
1256 1566 1570 28
1257 1571 1572 28
1258 1571 1573 28
1259 1571 1574 28
1260 1571 1575 28
1261 1576 1577 28
1262 1576 1578 28
1263 1576 1579 28
1264 1576 1580 28
1265 1581 1582 28
1266 1581 1583 28
1267 1581 1584 28
1268 1581 1585 28
1269 1586 1587 28
1270 1586 1588 28
1271 1586 1589 28
1272 1586 1590 28
1273 1591 1592 28
1274 1591 1593 28
1275 1591 1594 28
1276 1591 1595 28
1277 1596 1597 28
1278 1596 1598 28
1279 1596 1599 28
1280 1596 1600 28
1281 1601 1602 28
1282 1601 1603 28
1283 1601 1604 28
1284 1601 1605 28
1285 1606 1607 28
1286 1606 1608 28
1287 1606 1609 28
1288 1606 1610 28
1289 1611 1612 28
1290 1611 1613 28
1291 1611 1614 28
1292 1611 1615 28
1293 1616 1617 28
1294 1616 1618 28
1295 1616 1619 28
1296 1616 1620 28
1297 1621 1622 28
1298 1621 1623 28
1299 1621 1624 28
1300 1621 1625 28
1301 1626 1627 28
1302 1626 1628 28
1303 1626 1629 28
1304 1626 1630 28
1305 1631 1632 28
1306 1631 1633 28
1307 1631 1634 28
1308 1631 1635 28
1309 1636 1637 28
1310 1636 1638 28
1311 1636 1639 28
1312 1636 1640 28
1313 1641 1642 28
1314 1641 1643 28
1315 1641 1644 28
1316 1641 1645 28
1317 1646 1647 28
1318 1646 1648 28
1319 1646 1649 28
1320 1646 1650 28
1321 1651 1652 28
1322 1651 1653 28
1323 1651 1654 28
1324 1651 1655 28
1325 1656 1657 28
1326 1656 1658 28
1327 1656 1659 28
1328 1656 1660 28
1329 1661 1662 28
1330 1661 1663 28
1331 1661 1664 28
1332 1661 1665 28
1333 1666 1667 28
1334 1666 1668 28
1335 1666 1669 28
1336 1666 1670 28
1337 1671 1672 28
1338 1671 1673 28
1339 1671 1674 28
1340 1671 1675 28
1341 1676 1677 28
1342 1676 1678 28
1343 1676 1679 28
1344 1676 1680 28
1345 1681 1682 28
1346 1681 1683 28
1347 1681 1684 28
1348 1681 1685 28
1349 1686 1687 28
1350 1686 1688 28
1351 1686 1689 28
1352 1686 1690 28
1353 1691 1692 28
1354 1691 1693 28
1355 1691 1694 28
1356 1691 1695 28
1357 1696 1697 28
1358 1696 1698 28
1359 1696 1699 28
1360 1696 1700 28
1361 1701 1702 28
1362 1701 1703 28
1363 1701 1704 28
1364 1701 1705 28
1365 1706 1707 28
1366 1706 1708 28
1367 1706 1709 28
1368 1706 1710 28
1369 1711 1712 28
1370 1711 1713 28
1371 1711 1714 28
1372 1711 1715 28
1373 1716 1717 28
1374 1716 1718 28
1375 1716 1719 28
1376 1716 1720 28
1377 1721 1722 28
1378 1721 1723 28
1379 1721 1724 28
1380 1721 1725 28
1381 1726 1727 28
1382 1726 1728 28
1383 1726 1729 28
1384 1726 1730 28
1385 1731 1732 28
1386 1731 1733 28
1387 1731 1734 28
1388 1731 1735 28
1389 1736 1737 28
1390 1736 1738 28
1391 1736 1739 28
1392 1736 1740 28
1393 1741 1742 28
1394 1741 1743 28
1395 1741 1744 28
1396 1741 1745 28
1397 1746 1747 28
1398 1746 1748 28
1399 1746 1749 28
1400 1746 1750 28
1401 1751 1752 28
1402 1751 1753 28
1403 1751 1754 28
1404 1751 1755 28
1405 1756 1757 28
1406 1756 1758 28
1407 1756 1759 28
1408 1756 1760 28
1409 1761 1762 28
1410 1761 1763 28
1411 1761 1764 28
1412 1761 1765 28
1413 1766 1767 28
1414 1766 1768 28
1415 1766 1769 28
1416 1766 1770 28
1417 1771 1772 28
1418 1771 1773 28
1419 1771 1774 28
1420 1771 1775 28
1421 1776 1777 28
1422 1776 1778 28
1423 1776 1779 28
1424 1776 1780 28
1425 1781 1782 28
1426 1781 1783 28
1427 1781 1784 28
1428 1781 1785 28
1429 1786 1787 28
1430 1786 1788 28
1431 1786 1789 28
1432 1786 1790 28
1433 1791 1792 28
1434 1791 1793 28
1435 1791 1794 28
1436 1791 1795 28
1437 1796 1797 28
1438 1796 1798 28
1439 1796 1799 28
1440 1796 1800 28
1441 1801 1802 28
1442 1801 1803 28
1443 1801 1804 28
1444 1801 1805 28
1445 1806 1807 28
1446 1806 1808 28
1447 1806 1809 28
1448 1806 1810 28
1449 1811 1812 28
1450 1811 1813 28
1451 1811 1814 28
1452 1811 1815 28
1453 1816 1817 28
1454 1816 1818 28
1455 1816 1819 28
1456 1816 1820 28
1457 1821 1822 28
1458 1821 1823 28
1459 1821 1824 28
1460 1821 1825 28
1461 1826 1827 28
1462 1826 1828 28
1463 1826 1829 28
1464 1826 1830 28
1465 1831 1832 28
1466 1831 1833 28
1467 1831 1834 28
1468 1831 1835 28
1469 1836 1837 28
1470 1836 1838 28
1471 1836 1839 28
1472 1836 1840 28
1473 1841 1842 28
1474 1841 1843 28
1475 1841 1844 28
1476 1841 1845 28
1477 1846 1847 28
1478 1846 1848 28
1479 1846 1849 28
1480 1846 1850 28
1481 1851 1852 28
1482 1851 1853 28
1483 1851 1854 28
1484 1851 1855 28
1485 1856 1857 28
1486 1856 1858 28
1487 1856 1859 28
1488 1856 1860 28
1489 1861 1862 28
1490 1861 1863 28
1491 1861 1864 28
1492 1861 1865 28
1493 1866 1867 28
1494 1866 1868 28
1495 1866 1869 28
1496 1866 1870 28
1497 1871 1872 28
1498 1871 1873 28
1499 1871 1874 28
1500 1871 1875 28
1501 1876 1877 28
1502 1876 1878 28
1503 1876 1879 28
1504 1876 1880 28
1505 1881 1882 28
1506 1881 1883 28
1507 1881 1884 28
1508 1881 1885 28
1509 1886 1887 28
1510 1886 1888 28
1511 1886 1889 28
1512 1886 1890 28
1513 1891 1892 28
1514 1891 1893 28
1515 1891 1894 28
1516 1891 1895 28
1517 1896 1897 28
1518 1896 1898 28
1519 1896 1899 28
1520 1896 1900 28
1521 1901 1902 28
1522 1901 1903 28
1523 1901 1904 28
1524 1901 1905 28
1525 1906 1907 28
1526 1906 1908 28
1527 1906 1909 28
1528 1906 1910 28
1529 1911 1912 28
1530 1911 1913 28
1531 1911 1914 28
1532 1911 1915 28
1533 1916 1917 28
1534 1916 1918 28
1535 1916 1919 28
1536 1916 1920 28
1537 1921 1922 28
1538 1921 1923 28
1539 1921 1924 28
1540 1921 1925 28
1541 1926 1927 28
1542 1926 1928 28
1543 1926 1929 28
1544 1926 1930 28
1545 1931 1932 28
1546 1931 1933 28
1547 1931 1934 28
1548 1931 1935 28
1549 1936 1937 28
1550 1936 1938 28
1551 1936 1939 28
1552 1936 1940 28
1553 1941 1942 28
1554 1941 1943 28
1555 1941 1944 28
1556 1941 1945 28
1557 1946 1947 28
1558 1946 1948 28
1559 1946 1949 28
1560 1946 1950 28
1561 1951 1952 28
1562 1951 1953 28
1563 1951 1954 28
1564 1951 1955 28
1565 1956 1957 28
1566 1956 1958 28
1567 1956 1959 28
1568 1956 1960 28
1569 1961 1962 28
1570 1961 1963 28
1571 1961 1964 28
1572 1961 1965 28
1573 1966 1967 28
1574 1966 1968 28
1575 1966 1969 28
1576 1966 1970 28
1577 1971 1972 28
1578 1971 1973 28
1579 1971 1974 28
1580 1971 1975 28
1581 1976 1977 28
1582 1976 1978 28
1583 1976 1979 28
1584 1976 1980 28
1585 1981 1982 28
1586 1981 1983 28
1587 1981 1984 28
1588 1981 1985 28
1589 1986 1987 28
1590 1986 1988 28
1591 1986 1989 28
1592 1986 1990 28
1593 1991 1992 28
1594 1991 1993 28
1595 1991 1994 28
1596 1991 1995 28
1597 1996 1997 28
1598 1996 1998 28
1599 1996 1999 28
1600 1996 2000 28
1601 2001 2002 28
1602 2001 2003 28
1603 2001 2004 28
1604 2001 2005 28
1605 2006 2007 28
1606 2006 2008 28
1607 2006 2009 28
1608 2006 2010 28
1609 2011 2012 28
1610 2011 2013 28
1611 2011 2014 28
1612 2011 2015 28
1613 2016 2017 28
1614 2016 2018 28
1615 2016 2019 28
1616 2016 2020 28
1617 2021 2022 28
1618 2021 2023 28
1619 2021 2024 28
1620 2021 2025 28
1621 2026 2027 28
1622 2026 2028 28
1623 2026 2029 28
1624 2026 2030 28
1625 2031 2032 28
1626 2031 2033 28
1627 2031 2034 28
1628 2031 2035 28
1629 2036 2037 28
1630 2036 2038 28
1631 2036 2039 28
1632 2036 2040 28
1633 2041 2042 28
1634 2041 2043 28
1635 2041 2044 28
1636 2041 2045 28
1637 2046 2047 28
1638 2046 2048 28
1639 2046 2049 28
1640 2046 2050 28
1641 2051 2052 28
1642 2051 2053 28
1643 2051 2054 28
1644 2051 2055 28
1645 2056 2057 28
1646 2056 2058 28
1647 2056 2059 28
1648 2056 2060 28
1649 2061 2062 28
1650 2061 2063 28
1651 2061 2064 28
1652 2061 2065 28
1653 2066 2067 28
1654 2066 2068 28
1655 2066 2069 28
1656 2066 2070 28
1657 2071 2072 28
1658 2071 2073 28
1659 2071 2074 28
1660 2071 2075 28
1661 2076 2077 28
1662 2076 2078 28
1663 2076 2079 28
1664 2076 2080 28
1665 2081 2082 28
1666 2081 2083 28
1667 2081 2084 28
1668 2081 2085 28
1669 2086 2087 28
1670 2086 2088 28
1671 2086 2089 28
1672 2086 2090 28
1673 2091 2092 28
1674 2091 2093 28
1675 2091 2094 28
1676 2091 2095 28
1677 2096 2097 28
1678 2096 2098 28
1679 2096 2099 28
1680 2096 2100 28
1681 2101 2102 28
1682 2101 2103 28
1683 2101 2104 28
1684 2101 2105 28
1685 2106 2107 28
1686 2106 2108 28
1687 2106 2109 28
1688 2106 2110 28
1689 2111 2112 28
1690 2111 2113 28
1691 2111 2114 28
1692 2111 2115 28
1693 2116 2117 28
1694 2116 2118 28
1695 2116 2119 28
1696 2116 2120 28
1697 2121 2122 28
1698 2121 2123 28
1699 2121 2124 28
1700 2121 2125 28
1701 2126 2127 28
1702 2126 2128 28
1703 2126 2129 28
1704 2126 2130 28
1705 2131 2132 28
1706 2131 2133 28
1707 2131 2134 28
1708 2131 2135 28
1709 2136 2137 28
1710 2136 2138 28
1711 2136 2139 28
1712 2136 2140 28
1713 2141 2142 28
1714 2141 2143 28
1715 2141 2144 28
1716 2141 2145 28
1717 2146 2147 28
1718 2146 2148 28
1719 2146 2149 28
1720 2146 2150 28
1721 2151 2152 28
1722 2151 2153 28
1723 2151 2154 28
1724 2151 2155 28
1725 2156 2157 28
1726 2156 2158 28
1727 2156 2159 28
1728 2156 2160 28
1729 2161 2162 28
1730 2161 2163 28
1731 2161 2164 28
1732 2161 2165 28
1733 2166 2167 28
1734 2166 2168 28
1735 2166 2169 28
1736 2166 2170 28
1737 2171 2172 28
1738 2171 2173 28
1739 2171 2174 28
1740 2171 2175 28
1741 2176 2177 28
1742 2176 2178 28
1743 2176 2179 28
1744 2176 2180 28
1745 2181 2182 28
1746 2181 2183 28
1747 2181 2184 28
1748 2181 2185 28
1749 2186 2187 28
1750 2186 2188 28
1751 2186 2189 28
1752 2186 2190 28
1753 2191 2192 28
1754 2191 2193 28
1755 2191 2194 28
1756 2191 2195 28
1757 2196 2197 28
1758 2196 2198 28
1759 2196 2199 28
1760 2196 2200 28
1761 2201 2202 28
1762 2201 2203 28
1763 2201 2204 28
1764 2201 2205 28
1765 2206 2207 28
1766 2206 2208 28
1767 2206 2209 28
1768 2206 2210 28
1769 2211 2212 28
1770 2211 2213 28
1771 2211 2214 28
1772 2211 2215 28
1773 2216 2217 28
1774 2216 2218 28
1775 2216 2219 28
1776 2216 2220 28
1777 2221 2222 28
1778 2221 2223 28
1779 2221 2224 28
1780 2221 2225 28
1781 2226 2227 28
1782 2226 2228 28
1783 2226 2229 28
1784 2226 2230 28
1785 2231 2232 28
1786 2231 2233 28
1787 2231 2234 28
1788 2231 2235 28
1789 2236 2237 28
1790 2236 2238 28
1791 2236 2239 28
1792 2236 2240 28
1793 2241 2242 28
1794 2241 2243 28
1795 2241 2244 28
1796 2241 2245 28
1797 2246 2247 28
1798 2246 2248 28
1799 2246 2249 28
1800 2246 2250 28
1801 2251 2252 28
1802 2251 2253 28
1803 2251 2254 28
1804 2251 2255 28
1805 2256 2257 28
1806 2256 2258 28
1807 2256 2259 28
1808 2256 2260 28
1809 2261 2262 28
1810 2261 2263 28
1811 2261 2264 28
1812 2261 2265 28
1813 2266 2267 28
1814 2266 2268 28
1815 2266 2269 28
1816 2266 2270 28
1817 2271 2272 28
1818 2271 2273 28
1819 2271 2274 28
1820 2271 2275 28
1821 2276 2277 28
1822 2276 2278 28
1823 2276 2279 28
1824 2276 2280 28
1825 2281 2282 28
1826 2281 2283 28
1827 2281 2284 28
1828 2281 2285 28
1829 2286 2287 28
1830 2286 2288 28
1831 2286 2289 28
1832 2286 2290 28
1833 2291 2292 28
1834 2291 2293 28
1835 2291 2294 28
1836 2291 2295 28
1837 2296 2297 28
1838 2296 2298 28
1839 2296 2299 28
1840 2296 2300 28
1841 2301 2302 28
1842 2301 2303 28
1843 2301 2304 28
1844 2301 2305 28
1845 2306 2307 28
1846 2306 2308 28
1847 2306 2309 28
1848 2306 2310 28
1849 2311 2312 28
1850 2311 2313 28
1851 2311 2314 28
1852 2311 2315 28
1853 2316 2317 28
1854 2316 2318 28
1855 2316 2319 28
1856 2316 2320 28
1857 2321 2322 28
1858 2321 2323 28
1859 2321 2324 28
1860 2321 2325 28
1861 2326 2327 28
1862 2326 2328 28
1863 2326 2329 28
1864 2326 2330 28
1865 2331 2332 28
1866 2331 2333 28
1867 2331 2334 28
1868 2331 2335 28
1869 2336 2337 28
1870 2336 2338 28
1871 2336 2339 28
1872 2336 2340 28
1873 2341 2342 28
1874 2341 2343 28
1875 2341 2344 28
1876 2341 2345 28
1877 2346 2347 28
1878 2346 2348 28
1879 2346 2349 28
1880 2346 2350 28
1881 2351 2352 28
1882 2351 2353 28
1883 2351 2354 28
1884 2351 2355 28
1885 2356 2357 28
1886 2356 2358 28
1887 2356 2359 28
1888 2356 2360 28
1889 2361 2362 28
1890 2361 2363 28
1891 2361 2364 28
1892 2361 2365 28
1893 2366 2367 28
1894 2366 2368 28
1895 2366 2369 28
1896 2366 2370 28
1897 2371 2372 28
1898 2371 2373 28
1899 2371 2374 28
1900 2371 2375 28
1901 2376 2377 28
1902 2376 2378 28
1903 2376 2379 28
1904 2376 2380 28
1905 2381 2382 28
1906 2381 2383 28
1907 2381 2384 28
1908 2381 2385 28
1909 2386 2387 28
1910 2386 2388 28
1911 2386 2389 28
1912 2386 2390 28
1913 2391 2392 28
1914 2391 2393 28
1915 2391 2394 28
1916 2391 2395 28
1917 2396 2397 28
1918 2396 2398 28
1919 2396 2399 28
1920 2396 2400 28
1921 2401 2402 28
1922 2401 2403 28
1923 2401 2404 28
1924 2401 2405 28
1925 2406 2407 28
1926 2406 2408 28
1927 2406 2409 28
1928 2406 2410 28
1929 2411 2412 28
1930 2411 2413 28
1931 2411 2414 28
1932 2411 2415 28
1933 2416 2417 28
1934 2416 2418 28
1935 2416 2419 28
1936 2416 2420 28
1937 2421 2422 28
1938 2421 2423 28
1939 2421 2424 28
1940 2421 2425 28
1941 2426 2427 28
1942 2426 2428 28
1943 2426 2429 28
1944 2426 2430 28
1945 2431 2432 28
1946 2431 2433 28
1947 2431 2434 28
1948 2431 2435 28
1949 2436 2437 28
1950 2436 2438 28
1951 2436 2439 28
1952 2436 2440 28
1953 2441 2442 28
1954 2441 2443 28
1955 2441 2444 28
1956 2441 2445 28
1957 2446 2447 28
1958 2446 2448 28
1959 2446 2449 28
1960 2446 2450 28
1961 2451 2452 28
1962 2451 2453 28
1963 2451 2454 28
1964 2451 2455 28
1965 2456 2457 28
1966 2456 2458 28
1967 2456 2459 28
1968 2456 2460 28
1969 2461 2462 28
1970 2461 2463 28
1971 2461 2464 28
1972 2461 2465 28
1973 2466 2467 28
1974 2466 2468 28
1975 2466 2469 28
1976 2466 2470 28
1977 2471 2472 28
1978 2471 2473 28
1979 2471 2474 28
1980 2471 2475 28
1981 2476 2477 28
1982 2476 2478 28
1983 2476 2479 28
1984 2476 2480 28
1985 2481 2482 28
1986 2481 2483 28
1987 2481 2484 28
1988 2481 2485 28
1989 2486 2487 28
1990 2486 2488 28
1991 2486 2489 28
1992 2486 2490 28
1993 2491 2492 28
1994 2491 2493 28
1995 2491 2494 28
1996 2491 2495 28
1997 2496 2497 28
1998 2496 2498 28
1999 2496 2499 28
2000 2496 2500 28
2001 2501 2502 28
2002 2501 2503 28
2003 2501 2504 28
2004 2501 2505 28
2005 2506 2507 28
2006 2506 2508 28
2007 2506 2509 28
2008 2506 2510 28
2009 2511 2512 28
2010 2511 2513 28
2011 2511 2514 28
2012 2511 2515 28
2013 2516 2517 28
2014 2516 2518 28
2015 2516 2519 28
2016 2516 2520 28
2017 2521 2522 28
2018 2521 2523 28
2019 2521 2524 28
2020 2521 2525 28
2021 2526 2527 28
2022 2526 2528 28
2023 2526 2529 28
2024 2526 2530 28
2025 2531 2532 28
2026 2531 2533 28
2027 2531 2534 28
2028 2531 2535 28
2029 2536 2537 28
2030 2536 2538 28
2031 2536 2539 28
2032 2536 2540 28
2033 2541 2542 28
2034 2541 2543 28
2035 2541 2544 28
2036 2541 2545 28
2037 2546 2547 28
2038 2546 2548 28
2039 2546 2549 28
2040 2546 2550 28
2041 2551 2552 28
2042 2551 2553 28
2043 2551 2554 28
2044 2551 2555 28
2045 2556 2557 28
2046 2556 2558 28
2047 2556 2559 28
2048 2556 2560 28
2049 2561 2562 28
2050 2561 2563 28
2051 2561 2564 28
2052 2561 2565 28
2053 2566 2567 28
2054 2566 2568 28
2055 2566 2569 28
2056 2566 2570 28
2057 2571 2572 28
2058 2571 2573 28
2059 2571 2574 28
2060 2571 2575 28
2061 2576 2577 28
2062 2576 2578 28
2063 2576 2579 28
2064 2576 2580 28
2065 2581 2582 28
2066 2581 2583 28
2067 2581 2584 28
2068 2581 2585 28
2069 2586 2587 28
2070 2586 2588 28
2071 2586 2589 28
2072 2586 2590 28
2073 2591 2592 28
2074 2591 2593 28
2075 2591 2594 28
2076 2591 2595 28
2077 2596 2597 28
2078 2596 2598 28
2079 2596 2599 28
2080 2596 2600 28
2081 2601 2602 28
2082 2601 2603 28
2083 2601 2604 28
2084 2601 2605 28
2085 2606 2607 28
2086 2606 2608 28
2087 2606 2609 28
2088 2606 2610 28
2089 2611 2612 28
2090 2611 2613 28
2091 2611 2614 28
2092 2611 2615 28
2093 2616 2617 28
2094 2616 2618 28
2095 2616 2619 28
2096 2616 2620 28
2097 2621 2622 28
2098 2621 2623 28
2099 2621 2624 28
2100 2621 2625 28
2101 2626 2627 28
2102 2626 2628 28
2103 2626 2629 28
2104 2626 2630 28
2105 2631 2632 28
2106 2631 2633 28
2107 2631 2634 28
2108 2631 2635 28
2109 2636 2637 28
2110 2636 2638 28
2111 2636 2639 28
2112 2636 2640 28
2113 2641 2642 28
2114 2641 2643 28
2115 2641 2644 28
2116 2641 2645 28
2117 2646 2647 28
2118 2646 2648 28
2119 2646 2649 28
2120 2646 2650 28
2121 2651 2652 28
2122 2651 2653 28
2123 2651 2654 28
2124 2651 2655 28
2125 2656 2657 28
2126 2656 2658 28
2127 2656 2659 28
2128 2656 2660 28
2129 2661 2662 28
2130 2661 2663 28
2131 2661 2664 28
2132 2661 2665 28
2133 2666 2667 28
2134 2666 2668 28
2135 2666 2669 28
2136 2666 2670 28
2137 2671 2672 28
2138 2671 2673 28
2139 2671 2674 28
2140 2671 2675 28
2141 2676 2677 28
2142 2676 2678 28
2143 2676 2679 28
2144 2676 2680 28
2145 2681 2682 28
2146 2681 2683 28
2147 2681 2684 28
2148 2681 2685 28
2149 2686 2687 28
2150 2686 2688 28
2151 2686 2689 28
2152 2686 2690 28
2153 2691 2692 28
2154 2691 2693 28
2155 2691 2694 28
2156 2691 2695 28
2157 2696 2697 28
2158 2696 2698 28
2159 2696 2699 28
2160 2696 2700 28
2161 2701 2702 28
2162 2701 2703 28
2163 2701 2704 28
2164 2701 2705 28
2165 2706 2707 28
2166 2706 2708 28
2167 2706 2709 28
2168 2706 2710 28
2169 2711 2712 28
2170 2711 2713 28
2171 2711 2714 28
2172 2711 2715 28
2173 2716 2717 28
2174 2716 2718 28
2175 2716 2719 28
2176 2716 2720 28
2177 2721 2722 28
2178 2721 2723 28
2179 2721 2724 28
2180 2721 2725 28
2181 2726 2727 28
2182 2726 2728 28
2183 2726 2729 28
2184 2726 2730 28
2185 2731 2732 28
2186 2731 2733 28
2187 2731 2734 28
2188 2731 2735 28
2189 2736 2737 28
2190 2736 2738 28
2191 2736 2739 28
2192 2736 2740 28
2193 2741 2742 28
2194 2741 2743 28
2195 2741 2744 28
2196 2741 2745 28
2197 2746 2747 28
2198 2746 2748 28
2199 2746 2749 28
2200 2746 2750 28
2201 2751 2752 28
2202 2751 2753 28
2203 2751 2754 28
2204 2751 2755 28
2205 2756 2757 28
2206 2756 2758 28
2207 2756 2759 28
2208 2756 2760 28
2209 2761 2762 28
2210 2761 2763 28
2211 2761 2764 28
2212 2761 2765 28
2213 2766 2767 28
2214 2766 2768 28
2215 2766 2769 28
2216 2766 2770 28
2217 2771 2772 28
2218 2771 2773 28
2219 2771 2774 28
2220 2771 2775 28
2221 2776 2777 28
2222 2776 2778 28
2223 2776 2779 28
2224 2776 2780 28
2225 2781 2782 28
2226 2781 2783 28
2227 2781 2784 28
2228 2781 2785 28
2229 2786 2787 28
2230 2786 2788 28
2231 2786 2789 28
2232 2786 2790 28
2233 2791 2792 28
2234 2791 2793 28
2235 2791 2794 28
2236 2791 2795 28
2237 2796 2797 28
2238 2796 2798 28
2239 2796 2799 28
2240 2796 2800 28
2241 2801 2802 28
2242 2801 2803 28
2243 2801 2804 28
2244 2801 2805 28
2245 2806 2807 28
2246 2806 2808 28
2247 2806 2809 28
2248 2806 2810 28
2249 2811 2812 28
2250 2811 2813 28
2251 2811 2814 28
2252 2811 2815 28
2253 2816 2817 28
2254 2816 2818 28
2255 2816 2819 28
2256 2816 2820 28
2257 2821 2822 28
2258 2821 2823 28
2259 2821 2824 28
2260 2821 2825 28
2261 2826 2827 28
2262 2826 2828 28
2263 2826 2829 28
2264 2826 2830 28
2265 2831 2832 28
2266 2831 2833 28
2267 2831 2834 28
2268 2831 2835 28
2269 2836 2837 28
2270 2836 2838 28
2271 2836 2839 28
2272 2836 2840 28
2273 2841 2842 28
2274 2841 2843 28
2275 2841 2844 28
2276 2841 2845 28
2277 2846 2847 28
2278 2846 2848 28
2279 2846 2849 28
2280 2846 2850 28
2281 2851 2852 28
2282 2851 2853 28
2283 2851 2854 28
2284 2851 2855 28
2285 2856 2857 28
2286 2856 2858 28
2287 2856 2859 28
2288 2856 2860 28
2289 2861 2862 28
2290 2861 2863 28
2291 2861 2864 28
2292 2861 2865 28
2293 2866 2867 28
2294 2866 2868 28
2295 2866 2869 28
2296 2866 2870 28
2297 2871 2872 28
2298 2871 2873 28
2299 2871 2874 28
2300 2871 2875 28
2301 2876 2877 28
2302 2876 2878 28
2303 2876 2879 28
2304 2876 2880 28
2305 2881 2882 28
2306 2881 2883 28
2307 2881 2884 28
2308 2881 2885 28
2309 2886 2887 28
2310 2886 2888 28
2311 2886 2889 28
2312 2886 2890 28
2313 2891 2892 28
2314 2891 2893 28
2315 2891 2894 28
2316 2891 2895 28
2317 2896 2897 28
2318 2896 2898 28
2319 2896 2899 28
2320 2896 2900 28
2321 2901 2902 28
2322 2901 2903 28
2323 2901 2904 28
2324 2901 2905 28
2325 2906 2907 28
2326 2906 2908 28
2327 2906 2909 28
2328 2906 2910 28
2329 2911 2912 28
2330 2911 2913 28
2331 2911 2914 28
2332 2911 2915 28
2333 2916 2917 28
2334 2916 2918 28
2335 2916 2919 28
2336 2916 2920 28
2337 2921 2922 28
2338 2921 2923 28
2339 2921 2924 28
2340 2921 2925 28
2341 2926 2927 28
2342 2926 2928 28
2343 2926 2929 28
2344 2926 2930 28
2345 2931 2932 28
2346 2931 2933 28
2347 2931 2934 28
2348 2931 2935 28
2349 2936 2937 28
2350 2936 2938 28
2351 2936 2939 28
2352 2936 2940 28
2353 2941 2942 28
2354 2941 2943 28
2355 2941 2944 28
2356 2941 2945 28
2357 2946 2947 28
2358 2946 2948 28
2359 2946 2949 28
2360 2946 2950 28
2361 2951 2952 28
2362 2951 2953 28
2363 2951 2954 28
2364 2951 2955 28
2365 2956 2957 28
2366 2956 2958 28
2367 2956 2959 28
2368 2956 2960 28
2369 2961 2962 28
2370 2961 2963 28
2371 2961 2964 28
2372 2961 2965 28
2373 2966 2967 28
2374 2966 2968 28
2375 2966 2969 28
2376 2966 2970 28
2377 2971 2972 28
2378 2971 2973 28
2379 2971 2974 28
2380 2971 2975 28
2381 2976 2977 28
2382 2976 2978 28
2383 2976 2979 28
2384 2976 2980 28
2385 2981 2982 28
2386 2981 2983 28
2387 2981 2984 28
2388 2981 2985 28
2389 2986 2987 28
2390 2986 2988 28
2391 2986 2989 28
2392 2986 2990 28
2393 2991 2992 28
2394 2991 2993 28
2395 2991 2994 28
2396 2991 2995 28
2397 2996 2997 28
2398 2996 2998 28
2399 2996 2999 28
2400 2996 3000 28
2401 3001 3002 28
2402 3001 3003 28
2403 3001 3004 28
2404 3001 3005 28
2405 3006 3007 28
2406 3006 3008 28
2407 3006 3009 28
2408 3006 3010 28
2409 3011 3012 28
2410 3011 3013 28
2411 3011 3014 28
2412 3011 3015 28
2413 3016 3017 28
2414 3016 3018 28
2415 3016 3019 28
2416 3016 3020 28
2417 3021 3022 28
2418 3021 3023 28
2419 3021 3024 28
2420 3021 3025 28
2421 3026 3027 28
2422 3026 3028 28
2423 3026 3029 28
2424 3026 3030 28
2425 3031 3032 28
2426 3031 3033 28
2427 3031 3034 28
2428 3031 3035 28
2429 3036 3037 28
2430 3036 3038 28
2431 3036 3039 28
2432 3036 3040 28
2433 3041 3042 28
2434 3041 3043 28
2435 3041 3044 28
2436 3041 3045 28
2437 3046 3047 28
2438 3046 3048 28
2439 3046 3049 28
2440 3046 3050 28
2441 3051 3052 28
2442 3051 3053 28
2443 3051 3054 28
2444 3051 3055 28
2445 3056 3057 28
2446 3056 3058 28
2447 3056 3059 28
2448 3056 3060 28
2449 3061 3062 28
2450 3061 3063 28
2451 3061 3064 28
2452 3061 3065 28
2453 3066 3067 28
2454 3066 3068 28
2455 3066 3069 28
2456 3066 3070 28
2457 3071 3072 28
2458 3071 3073 28
2459 3071 3074 28
2460 3071 3075 28
2461 3076 3077 28
2462 3076 3078 28
2463 3076 3079 28
2464 3076 3080 28
2465 3081 3082 28
2466 3081 3083 28
2467 3081 3084 28
2468 3081 3085 28
2469 3086 3087 28
2470 3086 3088 28
2471 3086 3089 28
2472 3086 3090 28
2473 3091 3092 28
2474 3091 3093 28
2475 3091 3094 28
2476 3091 3095 28
2477 3096 3097 28
2478 3096 3098 28
2479 3096 3099 28
2480 3096 3100 28
2481 3101 3102 28
2482 3101 3103 28
2483 3101 3104 28
2484 3101 3105 28
2485 3106 3107 28
2486 3106 3108 28
2487 3106 3109 28
2488 3106 3110 28
2489 3111 3112 28
2490 3111 3113 28
2491 3111 3114 28
2492 3111 3115 28
2493 3116 3117 28
2494 3116 3118 28
2495 3116 3119 28
2496 3116 3120 28
2497 3121 3122 28
2498 3121 3123 28
2499 3121 3124 28
2500 3121 3125 28
2501 3126 3127 28
2502 3126 3128 28
2503 3126 3129 28
2504 3126 3130 28
2505 3131 3132 28
2506 3131 3133 28
2507 3131 3134 28
2508 3131 3135 28
2509 3136 3137 28
2510 3136 3138 28
2511 3136 3139 28
2512 3136 3140 28
2513 3141 3142 28
2514 3141 3143 28
2515 3141 3144 28
2516 3141 3145 28
2517 3146 3147 28
2518 3146 3148 28
2519 3146 3149 28
2520 3146 3150 28
2521 3151 3152 28
2522 3151 3153 28
2523 3151 3154 28
2524 3151 3155 28
2525 3156 3157 28
2526 3156 3158 28
2527 3156 3159 28
2528 3156 3160 28
2529 3161 3162 28
2530 3161 3163 28
2531 3161 3164 28
2532 3161 3165 28
2533 3166 3167 28
2534 3166 3168 28
2535 3166 3169 28
2536 3166 3170 28
2537 3171 3172 28
2538 3171 3173 28
2539 3171 3174 28
2540 3171 3175 28
2541 3176 3177 28
2542 3176 3178 28
2543 3176 3179 28
2544 3176 3180 28
2545 3181 3182 28
2546 3181 3183 28
2547 3181 3184 28
2548 3181 3185 28
2549 3186 3187 28
2550 3186 3188 28
2551 3186 3189 28
2552 3186 3190 28
2553 3191 3192 28
2554 3191 3193 28
2555 3191 3194 28
2556 3191 3195 28
2557 3196 3197 28
2558 3196 3198 28
2559 3196 3199 28
2560 3196 3200 28
2561 3201 3202 28
2562 3201 3203 28
2563 3201 3204 28
2564 3201 3205 28
2565 3206 3207 28
2566 3206 3208 28
2567 3206 3209 28
2568 3206 3210 28
2569 3211 3212 28
2570 3211 3213 28
2571 3211 3214 28
2572 3211 3215 28
2573 3216 3217 28
2574 3216 3218 28
2575 3216 3219 28
2576 3216 3220 28
2577 3221 3222 28
2578 3221 3223 28
2579 3221 3224 28
2580 3221 3225 28
2581 3226 3227 28
2582 3226 3228 28
2583 3226 3229 28
2584 3226 3230 28
2585 3231 3232 28
2586 3231 3233 28
2587 3231 3234 28
2588 3231 3235 28
2589 3236 3237 28
2590 3236 3238 28
2591 3236 3239 28
2592 3236 3240 28
2593 3241 3242 28
2594 3241 3243 28
2595 3241 3244 28
2596 3241 3245 28
2597 3246 3247 28
2598 3246 3248 28
2599 3246 3249 28
2600 3246 3250 28
2601 3251 3252 28
2602 3251 3253 28
2603 3251 3254 28
2604 3251 3255 28
2605 3256 3257 28
2606 3256 3258 28
2607 3256 3259 28
2608 3256 3260 28
2609 3261 3262 28
2610 3261 3263 28
2611 3261 3264 28
2612 3261 3265 28
2613 3266 3267 28
2614 3266 3268 28
2615 3266 3269 28
2616 3266 3270 28
2617 3271 3272 28
2618 3271 3273 28
2619 3271 3274 28
2620 3271 3275 28
2621 3276 3277 28
2622 3276 3278 28
2623 3276 3279 28
2624 3276 3280 28
2625 3281 3282 28
2626 3281 3283 28
2627 3281 3284 28
2628 3281 3285 28
2629 3286 3287 28
2630 3286 3288 28
2631 3286 3289 28
2632 3286 3290 28
2633 3291 3292 28
2634 3291 3293 28
2635 3291 3294 28
2636 3291 3295 28
2637 3296 3297 28
2638 3296 3298 28
2639 3296 3299 28
2640 3296 3300 28
2641 3301 3302 28
2642 3301 3303 28
2643 3301 3304 28
2644 3301 3305 28
2645 3306 3307 28
2646 3306 3308 28
2647 3306 3309 28
2648 3306 3310 28
2649 3311 3312 28
2650 3311 3313 28
2651 3311 3314 28
2652 3311 3315 28
2653 3316 3317 28
2654 3316 3318 28
2655 3316 3319 28
2656 3316 3320 28
2657 3321 3322 28
2658 3321 3323 28
2659 3321 3324 28
2660 3321 3325 28
2661 3326 3327 28
2662 3326 3328 28
2663 3326 3329 28
2664 3326 3330 28
2665 3331 3332 28
2666 3331 3333 28
2667 3331 3334 28
2668 3331 3335 28
2669 3336 3337 28
2670 3336 3338 28
2671 3336 3339 28
2672 3336 3340 28
2673 3341 3342 28
2674 3341 3343 28
2675 3341 3344 28
2676 3341 3345 28
2677 3346 3347 28
2678 3346 3348 28
2679 3346 3349 28
2680 3346 3350 28
2681 3351 3352 28
2682 3351 3353 28
2683 3351 3354 28
2684 3351 3355 28
2685 3356 3357 28
2686 3356 3358 28
2687 3356 3359 28
2688 3356 3360 28
2689 3361 3362 28
2690 3361 3363 28
2691 3361 3364 28
2692 3361 3365 28
2693 3366 3367 28
2694 3366 3368 28
2695 3366 3369 28
2696 3366 3370 28
2697 3371 3372 28
2698 3371 3373 28
2699 3371 3374 28
2700 3371 3375 28
2701 3376 3377 28
2702 3376 3378 28
2703 3376 3379 28
2704 3376 3380 28
2705 3381 3382 28
2706 3381 3383 28
2707 3381 3384 28
2708 3381 3385 28
2709 3386 3387 28
2710 3386 3388 28
2711 3386 3389 28
2712 3386 3390 28
2713 3391 3392 28
2714 3391 3393 28
2715 3391 3394 28
2716 3391 3395 28
2717 3396 3397 28
2718 3396 3398 28
2719 3396 3399 28
2720 3396 3400 28
2721 3401 3402 28
2722 3401 3403 28
2723 3401 3404 28
2724 3401 3405 28
2725 3406 3407 28
2726 3406 3408 28
2727 3406 3409 28
2728 3406 3410 28
2729 3411 3412 28
2730 3411 3413 28
2731 3411 3414 28
2732 3411 3415 28
2733 3416 3417 28
2734 3416 3418 28
2735 3416 3419 28
2736 3416 3420 28
2737 3421 3422 28
2738 3421 3423 28
2739 3421 3424 28
2740 3421 3425 28
2741 3426 3427 28
2742 3426 3428 28
2743 3426 3429 28
2744 3426 3430 28
2745 3431 3432 28
2746 3431 3433 28
2747 3431 3434 28
2748 3431 3435 28
2749 3436 3437 28
2750 3436 3438 28
2751 3436 3439 28
2752 3436 3440 28
2753 3441 3442 28
2754 3441 3443 28
2755 3441 3444 28
2756 3441 3445 28
2757 3446 3447 28
2758 3446 3448 28
2759 3446 3449 28
2760 3446 3450 28
2761 3451 3452 28
2762 3451 3453 28
2763 3451 3454 28
2764 3451 3455 28
2765 3456 3457 28
2766 3456 3458 28
2767 3456 3459 28
2768 3456 3460 28
2769 3461 3462 28
2770 3461 3463 28
2771 3461 3464 28
2772 3461 3465 28
2773 3466 3467 28
2774 3466 3468 28
2775 3466 3469 28
2776 3466 3470 28
2777 3471 3472 28
2778 3471 3473 28
2779 3471 3474 28
2780 3471 3475 28
2781 3476 3477 28
2782 3476 3478 28
2783 3476 3479 28
2784 3476 3480 28
2785 3481 3482 28
2786 3481 3483 28
2787 3481 3484 28
2788 3481 3485 28
2789 3486 3487 28
2790 3486 3488 28
2791 3486 3489 28
2792 3486 3490 28
2793 3491 3492 28
2794 3491 3493 28
2795 3491 3494 28
2796 3491 3495 28
2797 3496 3497 28
2798 3496 3498 28
2799 3496 3499 28
2800 3496 3500 28
2801 3501 3502 28
2802 3501 3503 28
2803 3501 3504 28
2804 3501 3505 28
2805 3506 3507 28
2806 3506 3508 28
2807 3506 3509 28
2808 3506 3510 28
2809 3511 3512 28
2810 3511 3513 28
2811 3511 3514 28
2812 3511 3515 28
2813 3516 3517 28
2814 3516 3518 28
2815 3516 3519 28
2816 3516 3520 28
2817 3521 3522 28
2818 3521 3523 28
2819 3521 3524 28
2820 3521 3525 28
2821 3526 3527 28
2822 3526 3528 28
2823 3526 3529 28
2824 3526 3530 28
2825 3531 3532 28
2826 3531 3533 28
2827 3531 3534 28
2828 3531 3535 28
2829 3536 3537 28
2830 3536 3538 28
2831 3536 3539 28
2832 3536 3540 28
2833 3541 3542 28
2834 3541 3543 28
2835 3541 3544 28
2836 3541 3545 28
2837 3546 3547 28
2838 3546 3548 28
2839 3546 3549 28
2840 3546 3550 28
2841 3551 3552 28
2842 3551 3553 28
2843 3551 3554 28
2844 3551 3555 28
2845 3556 3557 28
2846 3556 3558 28
2847 3556 3559 28
2848 3556 3560 28
2849 3561 3562 28
2850 3561 3563 28
2851 3561 3564 28
2852 3561 3565 28
2853 3566 3567 28
2854 3566 3568 28
2855 3566 3569 28
2856 3566 3570 28
2857 3571 3572 28
2858 3571 3573 28
2859 3571 3574 28
2860 3571 3575 28
2861 3576 3577 28
2862 3576 3578 28
2863 3576 3579 28
2864 3576 3580 28
2865 3581 3582 28
2866 3581 3583 28
2867 3581 3584 28
2868 3581 3585 28
2869 3586 3587 28
2870 3586 3588 28
2871 3586 3589 28
2872 3586 3590 28
2873 3591 3592 28
2874 3591 3593 28
2875 3591 3594 28
2876 3591 3595 28
2877 3596 3597 28
2878 3596 3598 28
2879 3596 3599 28
2880 3596 3600 28
2881 3601 3602 28
2882 3601 3603 28
2883 3601 3604 28
2884 3601 3605 28
2885 3606 3607 28
2886 3606 3608 28
2887 3606 3609 28
2888 3606 3610 28
2889 3611 3612 28
2890 3611 3613 28
2891 3611 3614 28
2892 3611 3615 28
2893 3616 3617 28
2894 3616 3618 28
2895 3616 3619 28
2896 3616 3620 28
2897 3621 3622 28
2898 3621 3623 28
2899 3621 3624 28
2900 3621 3625 28
2901 3626 3627 28
2902 3626 3628 28
2903 3626 3629 28
2904 3626 3630 28
2905 3631 3632 28
2906 3631 3633 28
2907 3631 3634 28
2908 3631 3635 28
2909 3636 3637 28
2910 3636 3638 28
2911 3636 3639 28
2912 3636 3640 28
2913 3641 3642 28
2914 3641 3643 28
2915 3641 3644 28
2916 3641 3645 28
2917 3646 3647 28
2918 3646 3648 28
2919 3646 3649 28
2920 3646 3650 28
2921 3651 3652 28
2922 3651 3653 28
2923 3651 3654 28
2924 3651 3655 28
2925 3656 3657 28
2926 3656 3658 28
2927 3656 3659 28
2928 3656 3660 28
2929 3661 3662 28
2930 3661 3663 28
2931 3661 3664 28
2932 3661 3665 28
2933 3666 3667 28
2934 3666 3668 28
2935 3666 3669 28
2936 3666 3670 28
2937 3671 3672 28
2938 3671 3673 28
2939 3671 3674 28
2940 3671 3675 28
2941 3676 3677 28
2942 3676 3678 28
2943 3676 3679 28
2944 3676 3680 28
2945 3681 3682 28
2946 3681 3683 28
2947 3681 3684 28
2948 3681 3685 28
2949 3686 3687 28
2950 3686 3688 28
2951 3686 3689 28
2952 3686 3690 28
2953 3691 3692 28
2954 3691 3693 28
2955 3691 3694 28
2956 3691 3695 28
2957 3696 3697 28
2958 3696 3698 28
2959 3696 3699 28
2960 3696 3700 28
2961 3701 3702 28
2962 3701 3703 28
2963 3701 3704 28
2964 3701 3705 28
2965 3706 3707 28
2966 3706 3708 28
2967 3706 3709 28
2968 3706 3710 28
2969 3711 3712 28
2970 3711 3713 28
2971 3711 3714 28
2972 3711 3715 28
2973 3716 3717 28
2974 3716 3718 28
2975 3716 3719 28
2976 3716 3720 28
2977 3721 3722 28
2978 3721 3723 28
2979 3721 3724 28
2980 3721 3725 28
2981 3726 3727 28
2982 3726 3728 28
2983 3726 3729 28
2984 3726 3730 28
2985 3731 3732 28
2986 3731 3733 28
2987 3731 3734 28
2988 3731 3735 28
2989 3736 3737 28
2990 3736 3738 28
2991 3736 3739 28
2992 3736 3740 28
2993 3741 3742 28
2994 3741 3743 28
2995 3741 3744 28
2996 3741 3745 28
2997 3746 3747 28
2998 3746 3748 28
2999 3746 3749 28
3000 3746 3750 28
3001 3751 3752 28
3002 3751 3753 28
3003 3751 3754 28
3004 3751 3755 28
3005 3756 3757 28
3006 3756 3758 28
3007 3756 3759 28
3008 3756 3760 28
3009 3761 3762 28
3010 3761 3763 28
3011 3761 3764 28
3012 3761 3765 28
3013 3766 3767 28
3014 3766 3768 28
3015 3766 3769 28
3016 3766 3770 28
3017 3771 3772 28
3018 3771 3773 28
3019 3771 3774 28
3020 3771 3775 28
3021 3776 3777 28
3022 3776 3778 28
3023 3776 3779 28
3024 3776 3780 28
3025 3781 3782 28
3026 3781 3783 28
3027 3781 3784 28
3028 3781 3785 28
3029 3786 3787 28
3030 3786 3788 28
3031 3786 3789 28
3032 3786 3790 28
3033 3791 3792 28
3034 3791 3793 28
3035 3791 3794 28
3036 3791 3795 28
3037 3796 3797 28
3038 3796 3798 28
3039 3796 3799 28
3040 3796 3800 28
3041 3801 3802 28
3042 3801 3803 28
3043 3801 3804 28
3044 3801 3805 28
3045 3806 3807 28
3046 3806 3808 28
3047 3806 3809 28
3048 3806 3810 28
3049 3811 3812 28
3050 3811 3813 28
3051 3811 3814 28
3052 3811 3815 28
3053 3816 3817 28
3054 3816 3818 28
3055 3816 3819 28
3056 3816 3820 28
3057 3821 3822 28
3058 3821 3823 28
3059 3821 3824 28
3060 3821 3825 28
3061 3826 3827 28
3062 3826 3828 28
3063 3826 3829 28
3064 3826 3830 28
3065 3831 3832 28
3066 3831 3833 28
3067 3831 3834 28
3068 3831 3835 28
3069 3836 3837 28
3070 3836 3838 28
3071 3836 3839 28
3072 3836 3840 28
3073 3841 3842 28
3074 3841 3843 28
3075 3841 3844 28
3076 3841 3845 28
3077 3846 3847 28
3078 3846 3848 28
3079 3846 3849 28
3080 3846 3850 28
3081 3851 3852 28
3082 3851 3853 28
3083 3851 3854 28
3084 3851 3855 28
3085 3856 3857 28
3086 3856 3858 28
3087 3856 3859 28
3088 3856 3860 28
3089 3861 3862 28
3090 3861 3863 28
3091 3861 3864 28
3092 3861 3865 28
3093 3866 3867 28
3094 3866 3868 28
3095 3866 3869 28
3096 3866 3870 28
3097 3871 3872 28
3098 3871 3873 28
3099 3871 3874 28
3100 3871 3875 28
3101 3876 3877 28
3102 3876 3878 28
3103 3876 3879 28
3104 3876 3880 28
3105 3881 3882 28
3106 3881 3883 28
3107 3881 3884 28
3108 3881 3885 28
3109 3886 3887 28
3110 3886 3888 28
3111 3886 3889 28
3112 3886 3890 28
3113 3891 3892 28
3114 3891 3893 28
3115 3891 3894 28
3116 3891 3895 28
3117 3896 3897 28
3118 3896 3898 28
3119 3896 3899 28
3120 3896 3900 28
3121 3901 3902 28
3122 3901 3903 28
3123 3901 3904 28
3124 3901 3905 28
3125 3906 3907 28
3126 3906 3908 28
3127 3906 3909 28
3128 3906 3910 28
3129 3911 3912 28
3130 3911 3913 28
3131 3911 3914 28
3132 3911 3915 28
3133 3916 3917 28
3134 3916 3918 28
3135 3916 3919 28
3136 3916 3920 28
3137 3921 3922 28
3138 3921 3923 28
3139 3921 3924 28
3140 3921 3925 28
3141 3926 3927 28
3142 3926 3928 28
3143 3926 3929 28
3144 3926 3930 28
3145 3931 3932 28
3146 3931 3933 28
3147 3931 3934 28
3148 3931 3935 28
3149 3936 3937 28
3150 3936 3938 28
3151 3936 3939 28
3152 3936 3940 28
3153 3941 3942 28
3154 3941 3943 28
3155 3941 3944 28
3156 3941 3945 28
3157 3946 3947 28
3158 3946 3948 28
3159 3946 3949 28
3160 3946 3950 28
3161 3951 3952 28
3162 3951 3953 28
3163 3951 3954 28
3164 3951 3955 28
3165 3956 3957 28
3166 3956 3958 28
3167 3956 3959 28
3168 3956 3960 28
3169 3961 3962 28
3170 3961 3963 28
3171 3961 3964 28
3172 3961 3965 28
3173 3966 3967 28
3174 3966 3968 28
3175 3966 3969 28
3176 3966 3970 28
3177 3971 3972 28
3178 3971 3973 28
3179 3971 3974 28
3180 3971 3975 28
3181 3976 3977 28
3182 3976 3978 28
3183 3976 3979 28
3184 3976 3980 28
3185 3981 3982 28
3186 3981 3983 28
3187 3981 3984 28
3188 3981 3985 28
3189 3986 3987 28
3190 3986 3988 28
3191 3986 3989 28
3192 3986 3990 28
3193 3991 3992 28
3194 3991 3993 28
3195 3991 3994 28
3196 3991 3995 28
3197 3996 3997 28
3198 3996 3998 28
3199 3996 3999 28
3200 3996 4000 28
3201 4001 4002 28
3202 4001 4003 28
3203 4001 4004 28
3204 4001 4005 28
3205 4006 4007 28
3206 4006 4008 28
3207 4006 4009 28
3208 4006 4010 28
3209 4011 4012 28
3210 4011 4013 28
3211 4011 4014 28
3212 4011 4015 28
3213 4016 4017 28
3214 4016 4018 28
3215 4016 4019 28
3216 4016 4020 28
3217 4021 4022 28
3218 4021 4023 28
3219 4021 4024 28
3220 4021 4025 28
3221 4026 4027 28
3222 4026 4028 28
3223 4026 4029 28
3224 4026 4030 28
3225 4031 4032 28
3226 4031 4033 28
3227 4031 4034 28
3228 4031 4035 28
3229 4036 4037 28
3230 4036 4038 28
3231 4036 4039 28
3232 4036 4040 28
3233 4041 4042 28
3234 4041 4043 28
3235 4041 4044 28
3236 4041 4045 28
3237 4046 4047 28
3238 4046 4048 28
3239 4046 4049 28
3240 4046 4050 28
3241 4051 4052 28
3242 4051 4053 28
3243 4051 4054 28
3244 4051 4055 28
3245 4056 4057 28
3246 4056 4058 28
3247 4056 4059 28
3248 4056 4060 28
3249 4061 4062 28
3250 4061 4063 28
3251 4061 4064 28
3252 4061 4065 28
3253 4066 4067 28
3254 4066 4068 28
3255 4066 4069 28
3256 4066 4070 28
3257 4071 4072 28
3258 4071 4073 28
3259 4071 4074 28
3260 4071 4075 28
3261 4076 4077 28
3262 4076 4078 28
3263 4076 4079 28
3264 4076 4080 28
3265 4081 4082 28
3266 4081 4083 28
3267 4081 4084 28
3268 4081 4085 28
3269 4086 4087 28
3270 4086 4088 28
3271 4086 4089 28
3272 4086 4090 28
3273 4091 4092 28
3274 4091 4093 28
3275 4091 4094 28
3276 4091 4095 28
3277 4096 4097 28
3278 4096 4098 28
3279 4096 4099 28
3280 4096 4100 28
3281 4101 4102 28
3282 4101 4103 28
3283 4101 4104 28
3284 4101 4105 28
3285 4106 4107 28
3286 4106 4108 28
3287 4106 4109 28
3288 4106 4110 28
3289 4111 4112 28
3290 4111 4113 28
3291 4111 4114 28
3292 4111 4115 28
3293 4116 4117 28
3294 4116 4118 28
3295 4116 4119 28
3296 4116 4120 28
3297 4121 4122 28
3298 4121 4123 28
3299 4121 4124 28
3300 4121 4125 28
3301 4126 4127 28
3302 4126 4128 28
3303 4126 4129 28
3304 4126 4130 28
3305 4131 4132 28
3306 4131 4133 28
3307 4131 4134 28
3308 4131 4135 28
3309 4136 4137 28
3310 4136 4138 28
3311 4136 4139 28
3312 4136 4140 28
3313 4141 4142 28
3314 4141 4143 28
3315 4141 4144 28
3316 4141 4145 28
3317 4146 4147 28
3318 4146 4148 28
3319 4146 4149 28
3320 4146 4150 28
3321 4151 4152 28
3322 4151 4153 28
3323 4151 4154 28
3324 4151 4155 28
3325 4156 4157 28
3326 4156 4158 28
3327 4156 4159 28
3328 4156 4160 28
3329 4161 4162 28
3330 4161 4163 28
3331 4161 4164 28
3332 4161 4165 28
3333 4166 4167 28
3334 4166 4168 28
3335 4166 4169 28
3336 4166 4170 28
3337 4171 4172 28
3338 4171 4173 28
3339 4171 4174 28
3340 4171 4175 28
3341 4176 4177 28
3342 4176 4178 28
3343 4176 4179 28
3344 4176 4180 28
3345 4181 4182 28
3346 4181 4183 28
3347 4181 4184 28
3348 4181 4185 28
3349 4186 4187 28
3350 4186 4188 28
3351 4186 4189 28
3352 4186 4190 28
3353 4191 4192 28
3354 4191 4193 28
3355 4191 4194 28
3356 4191 4195 28
3357 4196 4197 28
3358 4196 4198 28
3359 4196 4199 28
3360 4196 4200 28
3361 4201 4202 28
3362 4201 4203 28
3363 4201 4204 28
3364 4201 4205 28
3365 4206 4207 28
3366 4206 4208 28
3367 4206 4209 28
3368 4206 4210 28
3369 4211 4212 28
3370 4211 4213 28
3371 4211 4214 28
3372 4211 4215 28
3373 4216 4217 28
3374 4216 4218 28
3375 4216 4219 28
3376 4216 4220 28
3377 4221 4222 28
3378 4221 4223 28
3379 4221 4224 28
3380 4221 4225 28
3381 4226 4227 28
3382 4226 4228 28
3383 4226 4229 28
3384 4226 4230 28
3385 4231 4232 28
3386 4231 4233 28
3387 4231 4234 28
3388 4231 4235 28
3389 4236 4237 28
3390 4236 4238 28
3391 4236 4239 28
3392 4236 4240 28
3393 4241 4242 28
3394 4241 4243 28
3395 4241 4244 28
3396 4241 4245 28
3397 4246 4247 28
3398 4246 4248 28
3399 4246 4249 28
3400 4246 4250 28
3401 4251 4252 28
3402 4251 4253 28
3403 4251 4254 28
3404 4251 4255 28
3405 4256 4257 28
3406 4256 4258 28
3407 4256 4259 28
3408 4256 4260 28
3409 4261 4262 28
3410 4261 4263 28
3411 4261 4264 28
3412 4261 4265 28
3413 4266 4267 28
3414 4266 4268 28
3415 4266 4269 28
3416 4266 4270 28
3417 4271 4272 28
3418 4271 4273 28
3419 4271 4274 28
3420 4271 4275 28
3421 4276 4277 28
3422 4276 4278 28
3423 4276 4279 28
3424 4276 4280 28
3425 4281 4282 28
3426 4281 4283 28
3427 4281 4284 28
3428 4281 4285 28
3429 4286 4287 28
3430 4286 4288 28
3431 4286 4289 28
3432 4286 4290 28
3433 4291 4292 28
3434 4291 4293 28
3435 4291 4294 28
3436 4291 4295 28
3437 4296 4297 28
3438 4296 4298 28
3439 4296 4299 28
3440 4296 4300 28
3441 4301 4302 28
3442 4301 4303 28
3443 4301 4304 28
3444 4301 4305 28
3445 4306 4307 28
3446 4306 4308 28
3447 4306 4309 28
3448 4306 4310 28
3449 4311 4312 28
3450 4311 4313 28
3451 4311 4314 28
3452 4311 4315 28
3453 4316 4317 28
3454 4316 4318 28
3455 4316 4319 28
3456 4316 4320 28
3457 4321 4322 28
3458 4321 4323 28
3459 4321 4324 28
3460 4321 4325 28
3461 4326 4327 28
3462 4326 4328 28
3463 4326 4329 28
3464 4326 4330 28
3465 4331 4332 28
3466 4331 4333 28
3467 4331 4334 28
3468 4331 4335 28
3469 4336 4337 28
3470 4336 4338 28
3471 4336 4339 28
3472 4336 4340 28
3473 4341 4342 28
3474 4341 4343 28
3475 4341 4344 28
3476 4341 4345 28
3477 4346 4347 28
3478 4346 4348 28
3479 4346 4349 28
3480 4346 4350 28
3481 4351 4352 28
3482 4351 4353 28
3483 4351 4354 28
3484 4351 4355 28
3485 4356 4357 28
3486 4356 4358 28
3487 4356 4359 28
3488 4356 4360 28
3489 4361 4362 28
3490 4361 4363 28
3491 4361 4364 28
3492 4361 4365 28
3493 4366 4367 28
3494 4366 4368 28
3495 4366 4369 28
3496 4366 4370 28
3497 4371 4372 28
3498 4371 4373 28
3499 4371 4374 28
3500 4371 4375 28
3501 4376 4377 28
3502 4376 4378 28
3503 4376 4379 28
3504 4376 4380 28
3505 4381 4382 28
3506 4381 4383 28
3507 4381 4384 28
3508 4381 4385 28
3509 4386 4387 28
3510 4386 4388 28
3511 4386 4389 28
3512 4386 4390 28
3513 4391 4392 28
3514 4391 4393 28
3515 4391 4394 28
3516 4391 4395 28
3517 4396 4397 28
3518 4396 4398 28
3519 4396 4399 28
3520 4396 4400 28
3521 4401 4402 28
3522 4401 4403 28
3523 4401 4404 28
3524 4401 4405 28
3525 4406 4407 28
3526 4406 4408 28
3527 4406 4409 28
3528 4406 4410 28
3529 4411 4412 28
3530 4411 4413 28
3531 4411 4414 28
3532 4411 4415 28
3533 4416 4417 28
3534 4416 4418 28
3535 4416 4419 28
3536 4416 4420 28
3537 4421 4422 28
3538 4421 4423 28
3539 4421 4424 28
3540 4421 4425 28
3541 4426 4427 28
3542 4426 4428 28
3543 4426 4429 28
3544 4426 4430 28
3545 4431 4432 28
3546 4431 4433 28
3547 4431 4434 28
3548 4431 4435 28
3549 4436 4437 28
3550 4436 4438 28
3551 4436 4439 28
3552 4436 4440 28
3553 4441 4442 28
3554 4441 4443 28
3555 4441 4444 28
3556 4441 4445 28
3557 4446 4447 28
3558 4446 4448 28
3559 4446 4449 28
3560 4446 4450 28
3561 4451 4452 28
3562 4451 4453 28
3563 4451 4454 28
3564 4451 4455 28
3565 4456 4457 28
3566 4456 4458 28
3567 4456 4459 28
3568 4456 4460 28
3569 4461 4462 28
3570 4461 4463 28
3571 4461 4464 28
3572 4461 4465 28
3573 4466 4467 28
3574 4466 4468 28
3575 4466 4469 28
3576 4466 4470 28
3577 4471 4472 28
3578 4471 4473 28
3579 4471 4474 28
3580 4471 4475 28
3581 4476 4477 28
3582 4476 4478 28
3583 4476 4479 28
3584 4476 4480 28
3585 4481 4482 28
3586 4481 4483 28
3587 4481 4484 28
3588 4481 4485 28
3589 4486 4487 28
3590 4486 4488 28
3591 4486 4489 28
3592 4486 4490 28
3593 4491 4492 28
3594 4491 4493 28
3595 4491 4494 28
3596 4491 4495 28
3597 4496 4497 28
3598 4496 4498 28
3599 4496 4499 28
3600 4496 4500 28
3601 4501 4502 28
3602 4501 4503 28
3603 4501 4504 28
3604 4501 4505 28
3605 4506 4507 28
3606 4506 4508 28
3607 4506 4509 28
3608 4506 4510 28
3609 4511 4512 28
3610 4511 4513 28
3611 4511 4514 28
3612 4511 4515 28
3613 4516 4517 28
3614 4516 4518 28
3615 4516 4519 28
3616 4516 4520 28
3617 4521 4522 28
3618 4521 4523 28
3619 4521 4524 28
3620 4521 4525 28
3621 4526 4527 28
3622 4526 4528 28
3623 4526 4529 28
3624 4526 4530 28
3625 4531 4532 28
3626 4531 4533 28
3627 4531 4534 28
3628 4531 4535 28
3629 4536 4537 28
3630 4536 4538 28
3631 4536 4539 28
3632 4536 4540 28
3633 4541 4542 28
3634 4541 4543 28
3635 4541 4544 28
3636 4541 4545 28
3637 4546 4547 28
3638 4546 4548 28
3639 4546 4549 28
3640 4546 4550 28
3641 4551 4552 28
3642 4551 4553 28
3643 4551 4554 28
3644 4551 4555 28
3645 4556 4557 28
3646 4556 4558 28
3647 4556 4559 28
3648 4556 4560 28
3649 4561 4562 28
3650 4561 4563 28
3651 4561 4564 28
3652 4561 4565 28
3653 4566 4567 28
3654 4566 4568 28
3655 4566 4569 28
3656 4566 4570 28
3657 4571 4572 28
3658 4571 4573 28
3659 4571 4574 28
3660 4571 4575 28
3661 4576 4577 28
3662 4576 4578 28
3663 4576 4579 28
3664 4576 4580 28
3665 4581 4582 28
3666 4581 4583 28
3667 4581 4584 28
3668 4581 4585 28
3669 4586 4587 28
3670 4586 4588 28
3671 4586 4589 28
3672 4586 4590 28
3673 4591 4592 28
3674 4591 4593 28
3675 4591 4594 28
3676 4591 4595 28
3677 4596 4597 28
3678 4596 4598 28
3679 4596 4599 28
3680 4596 4600 28
3681 4601 4602 28
3682 4601 4603 28
3683 4601 4604 28
3684 4601 4605 28
3685 4606 4607 28
3686 4606 4608 28
3687 4606 4609 28
3688 4606 4610 28
3689 4611 4612 28
3690 4611 4613 28
3691 4611 4614 28
3692 4611 4615 28
3693 4616 4617 28
3694 4616 4618 28
3695 4616 4619 28
3696 4616 4620 28
3697 4621 4622 28
3698 4621 4623 28
3699 4621 4624 28
3700 4621 4625 28
3701 4626 4627 28
3702 4626 4628 28
3703 4626 4629 28
3704 4626 4630 28
3705 4631 4632 28
3706 4631 4633 28
3707 4631 4634 28
3708 4631 4635 28
3709 4636 4637 28
3710 4636 4638 28
3711 4636 4639 28
3712 4636 4640 28
3713 4641 4642 28
3714 4641 4643 28
3715 4641 4644 28
3716 4641 4645 28
3717 4646 4647 28
3718 4646 4648 28
3719 4646 4649 28
3720 4646 4650 28
3721 4651 4652 28
3722 4651 4653 28
3723 4651 4654 28
3724 4651 4655 28
3725 4656 4657 28
3726 4656 4658 28
3727 4656 4659 28
3728 4656 4660 28
3729 4661 4662 28
3730 4661 4663 28
3731 4661 4664 28
3732 4661 4665 28
3733 4666 4667 28
3734 4666 4668 28
3735 4666 4669 28
3736 4666 4670 28
3737 4671 4672 28
3738 4671 4673 28
3739 4671 4674 28
3740 4671 4675 28
3741 4676 4677 28
3742 4676 4678 28
3743 4676 4679 28
3744 4676 4680 28
3745 4681 4682 28
3746 4681 4683 28
3747 4681 4684 28
3748 4681 4685 28
3749 4686 4687 28
3750 4686 4688 28
3751 4686 4689 28
3752 4686 4690 28
3753 4691 4692 28
3754 4691 4693 28
3755 4691 4694 28
3756 4691 4695 28
3757 4696 4697 28
3758 4696 4698 28
3759 4696 4699 28
3760 4696 4700 28
3761 4701 4702 28
3762 4701 4703 28
3763 4701 4704 28
3764 4701 4705 28
3765 4706 4707 28
3766 4706 4708 28
3767 4706 4709 28
3768 4706 4710 28
3769 4711 4712 28
3770 4711 4713 28
3771 4711 4714 28
3772 4711 4715 28
3773 4716 4717 28
3774 4716 4718 28
3775 4716 4719 28
3776 4716 4720 28
3777 4721 4722 28
3778 4721 4723 28
3779 4721 4724 28
3780 4721 4725 28
3781 4726 4727 28
3782 4726 4728 28
3783 4726 4729 28
3784 4726 4730 28
3785 4731 4732 28
3786 4731 4733 28
3787 4731 4734 28
3788 4731 4735 28
3789 4736 4737 28
3790 4736 4738 28
3791 4736 4739 28
3792 4736 4740 28
3793 4741 4742 28
3794 4741 4743 28
3795 4741 4744 28
3796 4741 4745 28
3797 4746 4747 28
3798 4746 4748 28
3799 4746 4749 28
3800 4746 4750 28
3801 4751 4752 28
3802 4751 4753 28
3803 4751 4754 28
3804 4751 4755 28
3805 4756 4757 28
3806 4756 4758 28
3807 4756 4759 28
3808 4756 4760 28
3809 4761 4762 28
3810 4761 4763 28
3811 4761 4764 28
3812 4761 4765 28
3813 4766 4767 28
3814 4766 4768 28
3815 4766 4769 28
3816 4766 4770 28
3817 4771 4772 28
3818 4771 4773 28
3819 4771 4774 28
3820 4771 4775 28
3821 4776 4777 28
3822 4776 4778 28
3823 4776 4779 28
3824 4776 4780 28
3825 4781 4782 28
3826 4781 4783 28
3827 4781 4784 28
3828 4781 4785 28
3829 4786 4787 28
3830 4786 4788 28
3831 4786 4789 28
3832 4786 4790 28
3833 4791 4792 28
3834 4791 4793 28
3835 4791 4794 28
3836 4791 4795 28
3837 4796 4797 28
3838 4796 4798 28
3839 4796 4799 28
3840 4796 4800 28
3841 4801 4802 28
3842 4801 4803 28
3843 4801 4804 28
3844 4801 4805 28
3845 4806 4807 28
3846 4806 4808 28
3847 4806 4809 28
3848 4806 4810 28
3849 4811 4812 28
3850 4811 4813 28
3851 4811 4814 28
3852 4811 4815 28
3853 4816 4817 28
3854 4816 4818 28
3855 4816 4819 28
3856 4816 4820 28
3857 4821 4822 28
3858 4821 4823 28
3859 4821 4824 28
3860 4821 4825 28
3861 4826 4827 28
3862 4826 4828 28
3863 4826 4829 28
3864 4826 4830 28
3865 4831 4832 28
3866 4831 4833 28
3867 4831 4834 28
3868 4831 4835 28
3869 4836 4837 28
3870 4836 4838 28
3871 4836 4839 28
3872 4836 4840 28
3873 4841 4842 28
3874 4841 4843 28
3875 4841 4844 28
3876 4841 4845 28
3877 4846 4847 28
3878 4846 4848 28
3879 4846 4849 28
3880 4846 4850 28
3881 4851 4852 28
3882 4851 4853 28
3883 4851 4854 28
3884 4851 4855 28
3885 4856 4857 28
3886 4856 4858 28
3887 4856 4859 28
3888 4856 4860 28
3889 4861 4862 28
3890 4861 4863 28
3891 4861 4864 28
3892 4861 4865 28
3893 4866 4867 28
3894 4866 4868 28
3895 4866 4869 28
3896 4866 4870 28
3897 4871 4872 28
3898 4871 4873 28
3899 4871 4874 28
3900 4871 4875 28
3901 4876 4877 28
3902 4876 4878 28
3903 4876 4879 28
3904 4876 4880 28
3905 4881 4882 28
3906 4881 4883 28
3907 4881 4884 28
3908 4881 4885 28
3909 4886 4887 28
3910 4886 4888 28
3911 4886 4889 28
3912 4886 4890 28
3913 4891 4892 28
3914 4891 4893 28
3915 4891 4894 28
3916 4891 4895 28
3917 4896 4897 28
3918 4896 4898 28
3919 4896 4899 28
3920 4896 4900 28
3921 4901 4902 28
3922 4901 4903 28
3923 4901 4904 28
3924 4901 4905 28
3925 4906 4907 28
3926 4906 4908 28
3927 4906 4909 28
3928 4906 4910 28
3929 4911 4912 28
3930 4911 4913 28
3931 4911 4914 28
3932 4911 4915 28
3933 4916 4917 28
3934 4916 4918 28
3935 4916 4919 28
3936 4916 4920 28
3937 4921 4922 28
3938 4921 4923 28
3939 4921 4924 28
3940 4921 4925 28
3941 4926 4927 28
3942 4926 4928 28
3943 4926 4929 28
3944 4926 4930 28
3945 4931 4932 28
3946 4931 4933 28
3947 4931 4934 28
3948 4931 4935 28
3949 4936 4937 28
3950 4936 4938 28
3951 4936 4939 28
3952 4936 4940 28
3953 4941 4942 28
3954 4941 4943 28
3955 4941 4944 28
3956 4941 4945 28
3957 4946 4947 28
3958 4946 4948 28
3959 4946 4949 28
3960 4946 4950 28
3961 4951 4952 28
3962 4951 4953 28
3963 4951 4954 28
3964 4951 4955 28
3965 4956 4957 28
3966 4956 4958 28
3967 4956 4959 28
3968 4956 4960 28
3969 4961 4962 28
3970 4961 4963 28
3971 4961 4964 28
3972 4961 4965 28
3973 4966 4967 28
3974 4966 4968 28
3975 4966 4969 28
3976 4966 4970 28
3977 4971 4972 28
3978 4971 4973 28
3979 4971 4974 28
3980 4971 4975 28
3981 4976 4977 28
3982 4976 4978 28
3983 4976 4979 28
3984 4976 4980 28
3985 4981 4982 28
3986 4981 4983 28
3987 4981 4984 28
3988 4981 4985 28
3989 4986 4987 28
3990 4986 4988 28
3991 4986 4989 28
3992 4986 4990 28
3993 4991 4992 28
3994 4991 4993 28
3995 4991 4994 28
3996 4991 4995 28
3997 4996 4997 28
3998 4996 4998 28
3999 4996 4999 28
4000 4996 5000 28
4001 5001 5002 28
4002 5001 5003 28
4003 5001 5004 28
4004 5001 5005 28
4005 5006 5007 28
4006 5006 5008 28
4007 5006 5009 28
4008 5006 5010 28
4009 5011 5012 28
4010 5011 5013 28
4011 5011 5014 28
4012 5011 5015 28
4013 5016 5017 28
4014 5016 5018 28
4015 5016 5019 28
4016 5016 5020 28
4017 5021 5022 28
4018 5021 5023 28
4019 5021 5024 28
4020 5021 5025 28
4021 5026 5027 28
4022 5026 5028 28
4023 5026 5029 28
4024 5026 5030 28
4025 5031 5032 28
4026 5031 5033 28
4027 5031 5034 28
4028 5031 5035 28
4029 5036 5037 28
4030 5036 5038 28
4031 5036 5039 28
4032 5036 5040 28
4033 5041 5042 28
4034 5041 5043 28
4035 5041 5044 28
4036 5041 5045 28
4037 5046 5047 28
4038 5046 5048 28
4039 5046 5049 28
4040 5046 5050 28
4041 5051 5052 28
4042 5051 5053 28
4043 5051 5054 28
4044 5051 5055 28
4045 5056 5057 28
4046 5056 5058 28
4047 5056 5059 28
4048 5056 5060 28
4049 5061 5062 28
4050 5061 5063 28
4051 5061 5064 28
4052 5061 5065 28
4053 5066 5067 28
4054 5066 5068 28
4055 5066 5069 28
4056 5066 5070 28
4057 5071 5072 28
4058 5071 5073 28
4059 5071 5074 28
4060 5071 5075 28
4061 5076 5077 28
4062 5076 5078 28
4063 5076 5079 28
4064 5076 5080 28
4065 5081 5082 28
4066 5081 5083 28
4067 5081 5084 28
4068 5081 5085 28
4069 5086 5087 28
4070 5086 5088 28
4071 5086 5089 28
4072 5086 5090 28
4073 5091 5092 28
4074 5091 5093 28
4075 5091 5094 28
4076 5091 5095 28
4077 5096 5097 28
4078 5096 5098 28
4079 5096 5099 28
4080 5096 5100 28
4081 5101 5102 28
4082 5101 5103 28
4083 5101 5104 28
4084 5101 5105 28
4085 5106 5107 28
4086 5106 5108 28
4087 5106 5109 28
4088 5106 5110 28
4089 5111 5112 28
4090 5111 5113 28
4091 5111 5114 28
4092 5111 5115 28
4093 5116 5117 28
4094 5116 5118 28
4095 5116 5119 28
4096 5116 5120 28
4097 5121 5122 28
4098 5121 5123 28
4099 5121 5124 28
4100 5121 5125 28
4101 5126 5127 28
4102 5126 5128 28
4103 5126 5129 28
4104 5126 5130 28
4105 5131 5132 28
4106 5131 5133 28
4107 5131 5134 28
4108 5131 5135 28
4109 5136 5137 28
4110 5136 5138 28
4111 5136 5139 28
4112 5136 5140 28
4113 5141 5142 28
4114 5141 5143 28
4115 5141 5144 28
4116 5141 5145 28
4117 5146 5147 28
4118 5146 5148 28
4119 5146 5149 28
4120 5146 5150 28
4121 5151 5152 28
4122 5151 5153 28
4123 5151 5154 28
4124 5151 5155 28
4125 5156 5157 28
4126 5156 5158 28
4127 5156 5159 28
4128 5156 5160 28
4129 5161 5162 28
4130 5161 5163 28
4131 5161 5164 28
4132 5161 5165 28
4133 5166 5167 28
4134 5166 5168 28
4135 5166 5169 28
4136 5166 5170 28
4137 5171 5172 28
4138 5171 5173 28
4139 5171 5174 28
4140 5171 5175 28
4141 5176 5177 28
4142 5176 5178 28
4143 5176 5179 28
4144 5176 5180 28
4145 5181 5182 28
4146 5181 5183 28
4147 5181 5184 28
4148 5181 5185 28
4149 5186 5187 28
4150 5186 5188 28
4151 5186 5189 28
4152 5186 5190 28
4153 5191 5192 28
4154 5191 5193 28
4155 5191 5194 28
4156 5191 5195 28
4157 5196 5197 28
4158 5196 5198 28
4159 5196 5199 28
4160 5196 5200 28
4161 5201 5202 28
4162 5201 5203 28
4163 5201 5204 28
4164 5201 5205 28
4165 5206 5207 28
4166 5206 5208 28
4167 5206 5209 28
4168 5206 5210 28
4169 5211 5212 28
4170 5211 5213 28
4171 5211 5214 28
4172 5211 5215 28
4173 5216 5217 28
4174 5216 5218 28
4175 5216 5219 28
4176 5216 5220 28
4177 5221 5222 28
4178 5221 5223 28
4179 5221 5224 28
4180 5221 5225 28
4181 5226 5227 28
4182 5226 5228 28
4183 5226 5229 28
4184 5226 5230 28
4185 5231 5232 28
4186 5231 5233 28
4187 5231 5234 28
4188 5231 5235 28
4189 5236 5237 28
4190 5236 5238 28
4191 5236 5239 28
4192 5236 5240 28
4193 5241 5242 28
4194 5241 5243 28
4195 5241 5244 28
4196 5241 5245 28
4197 5246 5247 28
4198 5246 5248 28
4199 5246 5249 28
4200 5246 5250 28
4201 5251 5252 28
4202 5251 5253 28
4203 5251 5254 28
4204 5251 5255 28
4205 5256 5257 28
4206 5256 5258 28
4207 5256 5259 28
4208 5256 5260 28
4209 5261 5262 28
4210 5261 5263 28
4211 5261 5264 28
4212 5261 5265 28
4213 5266 5267 28
4214 5266 5268 28
4215 5266 5269 28
4216 5266 5270 28
4217 5271 5272 28
4218 5271 5273 28
4219 5271 5274 28
4220 5271 5275 28
4221 5276 5277 28
4222 5276 5278 28
4223 5276 5279 28
4224 5276 5280 28
4225 5281 5282 28
4226 5281 5283 28
4227 5281 5284 28
4228 5281 5285 28
4229 5286 5287 28
4230 5286 5288 28
4231 5286 5289 28
4232 5286 5290 28
4233 5291 5292 28
4234 5291 5293 28
4235 5291 5294 28
4236 5291 5295 28
4237 5296 5297 28
4238 5296 5298 28
4239 5296 5299 28
4240 5296 5300 28
4241 5301 5302 28
4242 5301 5303 28
4243 5301 5304 28
4244 5301 5305 28
4245 5306 5307 28
4246 5306 5308 28
4247 5306 5309 28
4248 5306 5310 28
4249 5311 5312 28
4250 5311 5313 28
4251 5311 5314 28
4252 5311 5315 28
4253 5316 5317 28
4254 5316 5318 28
4255 5316 5319 28
4256 5316 5320 28
4257 5321 5322 28
4258 5321 5323 28
4259 5321 5324 28
4260 5321 5325 28
4261 5326 5327 28
4262 5326 5328 28
4263 5326 5329 28
4264 5326 5330 28
4265 5331 5332 28
4266 5331 5333 28
4267 5331 5334 28
4268 5331 5335 28
4269 5336 5337 28
4270 5336 5338 28
4271 5336 5339 28
4272 5336 5340 28
4273 5341 5342 28
4274 5341 5343 28
4275 5341 5344 28
4276 5341 5345 28
4277 5346 5347 28
4278 5346 5348 28
4279 5346 5349 28
4280 5346 5350 28
4281 5351 5352 28
4282 5351 5353 28
4283 5351 5354 28
4284 5351 5355 28
4285 5356 5357 28
4286 5356 5358 28
4287 5356 5359 28
4288 5356 5360 28
4289 5361 5362 28
4290 5361 5363 28
4291 5361 5364 28
4292 5361 5365 28
4293 5366 5367 28
4294 5366 5368 28
4295 5366 5369 28
4296 5366 5370 28
4297 5371 5372 28
4298 5371 5373 28
4299 5371 5374 28
4300 5371 5375 28
4301 5376 5377 28
4302 5376 5378 28
4303 5376 5379 28
4304 5376 5380 28
4305 5381 5382 28
4306 5381 5383 28
4307 5381 5384 28
4308 5381 5385 28
4309 5386 5387 28
4310 5386 5388 28
4311 5386 5389 28
4312 5386 5390 28
4313 5391 5392 28
4314 5391 5393 28
4315 5391 5394 28
4316 5391 5395 28
4317 5396 5397 28
4318 5396 5398 28
4319 5396 5399 28
4320 5396 5400 28
4321 5401 5402 28
4322 5401 5403 28
4323 5401 5404 28
4324 5401 5405 28
4325 5406 5407 28
4326 5406 5408 28
4327 5406 5409 28
4328 5406 5410 28
4329 5411 5412 28
4330 5411 5413 28
4331 5411 5414 28
4332 5411 5415 28
4333 5416 5417 28
4334 5416 5418 28
4335 5416 5419 28
4336 5416 5420 28
4337 5421 5422 28
4338 5421 5423 28
4339 5421 5424 28
4340 5421 5425 28
4341 5426 5427 28
4342 5426 5428 28
4343 5426 5429 28
4344 5426 5430 28
4345 5431 5432 28
4346 5431 5433 28
4347 5431 5434 28
4348 5431 5435 28
4349 5436 5437 28
4350 5436 5438 28
4351 5436 5439 28
4352 5436 5440 28
4353 5441 5442 28
4354 5441 5443 28
4355 5441 5444 28
4356 5441 5445 28
4357 5446 5447 28
4358 5446 5448 28
4359 5446 5449 28
4360 5446 5450 28
4361 5451 5452 28
4362 5451 5453 28
4363 5451 5454 28
4364 5451 5455 28
4365 5456 5457 28
4366 5456 5458 28
4367 5456 5459 28
4368 5456 5460 28
4369 5461 5462 28
4370 5461 5463 28
4371 5461 5464 28
4372 5461 5465 28
4373 5466 5467 28
4374 5466 5468 28
4375 5466 5469 28
4376 5466 5470 28
4377 5471 5472 28
4378 5471 5473 28
4379 5471 5474 28
4380 5471 5475 28
4381 5476 5477 28
4382 5476 5478 28
4383 5476 5479 28
4384 5476 5480 28
4385 5481 5482 28
4386 5481 5483 28
4387 5481 5484 28
4388 5481 5485 28
4389 5486 5487 28
4390 5486 5488 28
4391 5486 5489 28
4392 5486 5490 28
4393 5491 5492 28
4394 5491 5493 28
4395 5491 5494 28
4396 5491 5495 28
4397 5496 5497 28
4398 5496 5498 28
4399 5496 5499 28
4400 5496 5500 28
4401 5501 5502 28
4402 5501 5503 28
4403 5501 5504 28
4404 5501 5505 28
4405 5506 5507 28
4406 5506 5508 28
4407 5506 5509 28
4408 5506 5510 28
4409 5511 5512 28
4410 5511 5513 28
4411 5511 5514 28
4412 5511 5515 28
4413 5516 5517 28
4414 5516 5518 28
4415 5516 5519 28
4416 5516 5520 28
4417 5521 5522 28
4418 5521 5523 28
4419 5521 5524 28
4420 5521 5525 28
4421 5526 5527 28
4422 5526 5528 28
4423 5526 5529 28
4424 5526 5530 28
4425 5531 5532 28
4426 5531 5533 28
4427 5531 5534 28
4428 5531 5535 28
4429 5536 5537 28
4430 5536 5538 28
4431 5536 5539 28
4432 5536 5540 28
4433 5541 5542 28
4434 5541 5543 28
4435 5541 5544 28
4436 5541 5545 28
4437 5546 5547 28
4438 5546 5548 28
4439 5546 5549 28
4440 5546 5550 28
4441 5551 5552 28
4442 5551 5553 28
4443 5551 5554 28
4444 5551 5555 28
4445 5556 5557 28
4446 5556 5558 28
4447 5556 5559 28
4448 5556 5560 28
4449 5561 5562 28
4450 5561 5563 28
4451 5561 5564 28
4452 5561 5565 28
4453 5566 5567 28
4454 5566 5568 28
4455 5566 5569 28
4456 5566 5570 28
4457 5571 5572 28
4458 5571 5573 28
4459 5571 5574 28
4460 5571 5575 28
4461 5576 5577 28
4462 5576 5578 28
4463 5576 5579 28
4464 5576 5580 28
4465 5581 5582 28
4466 5581 5583 28
4467 5581 5584 28
4468 5581 5585 28
4469 5586 5587 28
4470 5586 5588 28
4471 5586 5589 28
4472 5586 5590 28
4473 5591 5592 28
4474 5591 5593 28
4475 5591 5594 28
4476 5591 5595 28
4477 5596 5597 28
4478 5596 5598 28
4479 5596 5599 28
4480 5596 5600 28
4481 5601 5602 28
4482 5601 5603 28
4483 5601 5604 28
4484 5601 5605 28
4485 5606 5607 28
4486 5606 5608 28
4487 5606 5609 28
4488 5606 5610 28
4489 5611 5612 28
4490 5611 5613 28
4491 5611 5614 28
4492 5611 5615 28
4493 5616 5617 28
4494 5616 5618 28
4495 5616 5619 28
4496 5616 5620 28
4497 5621 5622 28
4498 5621 5623 28
4499 5621 5624 28
4500 5621 5625 28
4501 5626 5627 28
4502 5626 5628 28
4503 5626 5629 28
4504 5626 5630 28
4505 5631 5632 28
4506 5631 5633 28
4507 5631 5634 28
4508 5631 5635 28
4509 5636 5637 28
4510 5636 5638 28
4511 5636 5639 28
4512 5636 5640 28
4513 5641 5642 28
4514 5641 5643 28
4515 5641 5644 28
4516 5641 5645 28
4517 5646 5647 28
4518 5646 5648 28
4519 5646 5649 28
4520 5646 5650 28
4521 5651 5652 28
4522 5651 5653 28
4523 5651 5654 28
4524 5651 5655 28
4525 5656 5657 28
4526 5656 5658 28
4527 5656 5659 28
4528 5656 5660 28
4529 5661 5662 28
4530 5661 5663 28
4531 5661 5664 28
4532 5661 5665 28
4533 5666 5667 28
4534 5666 5668 28
4535 5666 5669 28
4536 5666 5670 28
4537 5671 5672 28
4538 5671 5673 28
4539 5671 5674 28
4540 5671 5675 28
4541 5676 5677 28
4542 5676 5678 28
4543 5676 5679 28
4544 5676 5680 28
4545 5681 5682 28
4546 5681 5683 28
4547 5681 5684 28
4548 5681 5685 28
4549 5686 5687 28
4550 5686 5688 28
4551 5686 5689 28
4552 5686 5690 28
4553 5691 5692 28
4554 5691 5693 28
4555 5691 5694 28
4556 5691 5695 28
4557 5696 5697 28
4558 5696 5698 28
4559 5696 5699 28
4560 5696 5700 28
4561 5701 5702 28
4562 5701 5703 28
4563 5701 5704 28
4564 5701 5705 28
4565 5706 5707 28
4566 5706 5708 28
4567 5706 5709 28
4568 5706 5710 28
4569 5711 5712 28
4570 5711 5713 28
4571 5711 5714 28
4572 5711 5715 28
4573 5716 5717 28
4574 5716 5718 28
4575 5716 5719 28
4576 5716 5720 28
4577 5721 5722 28
4578 5721 5723 28
4579 5721 5724 28
4580 5721 5725 28
4581 5726 5727 28
4582 5726 5728 28
4583 5726 5729 28
4584 5726 5730 28
4585 5731 5732 28
4586 5731 5733 28
4587 5731 5734 28
4588 5731 5735 28
4589 5736 5737 28
4590 5736 5738 28
4591 5736 5739 28
4592 5736 5740 28
4593 5741 5742 28
4594 5741 5743 28
4595 5741 5744 28
4596 5741 5745 28
4597 5746 5747 28
4598 5746 5748 28
4599 5746 5749 28
4600 5746 5750 28
4601 5751 5752 28
4602 5751 5753 28
4603 5751 5754 28
4604 5751 5755 28
4605 5756 5757 28
4606 5756 5758 28
4607 5756 5759 28
4608 5756 5760 28
4609 5761 5762 28
4610 5761 5763 28
4611 5761 5764 28
4612 5761 5765 28
4613 5766 5767 28
4614 5766 5768 28
4615 5766 5769 28
4616 5766 5770 28
4617 5771 5772 28
4618 5771 5773 28
4619 5771 5774 28
4620 5771 5775 28
4621 5776 5777 28
4622 5776 5778 28
4623 5776 5779 28
4624 5776 5780 28
4625 5781 5782 28
4626 5781 5783 28
4627 5781 5784 28
4628 5781 5785 28
4629 5786 5787 28
4630 5786 5788 28
4631 5786 5789 28
4632 5786 5790 28
4633 5791 5792 28
4634 5791 5793 28
4635 5791 5794 28
4636 5791 5795 28
4637 5796 5797 28
4638 5796 5798 28
4639 5796 5799 28
4640 5796 5800 28
4641 5801 5802 28
4642 5801 5803 28
4643 5801 5804 28
4644 5801 5805 28
4645 5806 5807 28
4646 5806 5808 28
4647 5806 5809 28
4648 5806 5810 28
4649 5811 5812 28
4650 5811 5813 28
4651 5811 5814 28
4652 5811 5815 28
4653 5816 5817 28
4654 5816 5818 28
4655 5816 5819 28
4656 5816 5820 28
4657 5821 5822 28
4658 5821 5823 28
4659 5821 5824 28
4660 5821 5825 28
4661 5826 5827 28
4662 5826 5828 28
4663 5826 5829 28
4664 5826 5830 28
4665 5831 5832 28
4666 5831 5833 28
4667 5831 5834 28
4668 5831 5835 28
4669 5836 5837 28
4670 5836 5838 28
4671 5836 5839 28
4672 5836 5840 28
4673 5841 5842 28
4674 5841 5843 28
4675 5841 5844 28
4676 5841 5845 28
4677 5846 5847 28
4678 5846 5848 28
4679 5846 5849 28
4680 5846 5850 28
4681 5851 5852 28
4682 5851 5853 28
4683 5851 5854 28
4684 5851 5855 28
4685 5856 5857 28
4686 5856 5858 28
4687 5856 5859 28
4688 5856 5860 28
4689 5861 5862 28
4690 5861 5863 28
4691 5861 5864 28
4692 5861 5865 28
4693 5866 5867 28
4694 5866 5868 28
4695 5866 5869 28
4696 5866 5870 28
4697 5871 5872 28
4698 5871 5873 28
4699 5871 5874 28
4700 5871 5875 28
4701 5876 5877 28
4702 5876 5878 28
4703 5876 5879 28
4704 5876 5880 28
4705 5881 5882 28
4706 5881 5883 28
4707 5881 5884 28
4708 5881 5885 28
4709 5886 5887 28
4710 5886 5888 28
4711 5886 5889 28
4712 5886 5890 28
4713 5891 5892 28
4714 5891 5893 28
4715 5891 5894 28
4716 5891 5895 28
4717 5896 5897 28
4718 5896 5898 28
4719 5896 5899 28
4720 5896 5900 28
4721 5901 5902 28
4722 5901 5903 28
4723 5901 5904 28
4724 5901 5905 28
4725 5906 5907 28
4726 5906 5908 28
4727 5906 5909 28
4728 5906 5910 28
4729 5911 5912 28
4730 5911 5913 28
4731 5911 5914 28
4732 5911 5915 28
4733 5916 5917 28
4734 5916 5918 28
4735 5916 5919 28
4736 5916 5920 28
4737 5921 5922 28
4738 5921 5923 28
4739 5921 5924 28
4740 5921 5925 28
4741 5926 5927 28
4742 5926 5928 28
4743 5926 5929 28
4744 5926 5930 28
4745 5931 5932 28
4746 5931 5933 28
4747 5931 5934 28
4748 5931 5935 28
4749 5936 5937 28
4750 5936 5938 28
4751 5936 5939 28
4752 5936 5940 28
4753 5941 5942 28
4754 5941 5943 28
4755 5941 5944 28
4756 5941 5945 28
4757 5946 5947 28
4758 5946 5948 28
4759 5946 5949 28
4760 5946 5950 28
4761 5951 5952 28
4762 5951 5953 28
4763 5951 5954 28
4764 5951 5955 28
4765 5956 5957 28
4766 5956 5958 28
4767 5956 5959 28
4768 5956 5960 28
4769 5961 5962 28
4770 5961 5963 28
4771 5961 5964 28
4772 5961 5965 28
4773 5966 5967 28
4774 5966 5968 28
4775 5966 5969 28
4776 5966 5970 28
4777 5971 5972 28
4778 5971 5973 28
4779 5971 5974 28
4780 5971 5975 28
4781 5976 5977 28
4782 5976 5978 28
4783 5976 5979 28
4784 5976 5980 28
4785 5981 5982 28
4786 5981 5983 28
4787 5981 5984 28
4788 5981 5985 28
4789 5986 5987 28
4790 5986 5988 28
4791 5986 5989 28
4792 5986 5990 28
4793 5991 5992 28
4794 5991 5993 28
4795 5991 5994 28
4796 5991 5995 28
4797 5996 5997 28
4798 5996 5998 28
4799 5996 5999 28
4800 5996 6000 28
4801 6001 6002 28
4802 6001 6003 28
4803 6001 6004 28
4804 6001 6005 28
4805 6006 6007 28
4806 6006 6008 28
4807 6006 6009 28
4808 6006 6010 28
4809 6011 6012 28
4810 6011 6013 28
4811 6011 6014 28
4812 6011 6015 28
4813 6016 6017 28
4814 6016 6018 28
4815 6016 6019 28
4816 6016 6020 28
4817 6021 6022 28
4818 6021 6023 28
4819 6021 6024 28
4820 6021 6025 28
4821 6026 6027 28
4822 6026 6028 28
4823 6026 6029 28
4824 6026 6030 28
4825 6031 6032 28
4826 6031 6033 28
4827 6031 6034 28
4828 6031 6035 28
4829 6036 6037 28
4830 6036 6038 28
4831 6036 6039 28
4832 6036 6040 28
4833 6041 6042 28
4834 6041 6043 28
4835 6041 6044 28
4836 6041 6045 28
4837 6046 6047 28
4838 6046 6048 28
4839 6046 6049 28
4840 6046 6050 28
4841 6051 6052 28
4842 6051 6053 28
4843 6051 6054 28
4844 6051 6055 28
4845 6056 6057 28
4846 6056 6058 28
4847 6056 6059 28
4848 6056 6060 28
4849 6061 6062 28
4850 6061 6063 28
4851 6061 6064 28
4852 6061 6065 28
4853 6066 6067 28
4854 6066 6068 28
4855 6066 6069 28
4856 6066 6070 28
4857 6071 6072 28
4858 6071 6073 28
4859 6071 6074 28
4860 6071 6075 28
4861 6076 6077 28
4862 6076 6078 28
4863 6076 6079 28
4864 6076 6080 28
4865 6081 6082 28
4866 6081 6083 28
4867 6081 6084 28
4868 6081 6085 28
4869 6086 6087 28
4870 6086 6088 28
4871 6086 6089 28
4872 6086 6090 28
4873 6091 6092 28
4874 6091 6093 28
4875 6091 6094 28
4876 6091 6095 28
4877 6096 6097 28
4878 6096 6098 28
4879 6096 6099 28
4880 6096 6100 28
4881 6101 6102 28
4882 6101 6103 28
4883 6101 6104 28
4884 6101 6105 28
4885 6106 6107 28
4886 6106 6108 28
4887 6106 6109 28
4888 6106 6110 28
4889 6111 6112 28
4890 6111 6113 28
4891 6111 6114 28
4892 6111 6115 28
4893 6116 6117 28
4894 6116 6118 28
4895 6116 6119 28
4896 6116 6120 28
4897 6121 6122 28
4898 6121 6123 28
4899 6121 6124 28
4900 6121 6125 28
4901 6126 6127 28
4902 6126 6128 28
4903 6126 6129 28
4904 6126 6130 28
4905 6131 6132 28
4906 6131 6133 28
4907 6131 6134 28
4908 6131 6135 28
4909 6136 6137 28
4910 6136 6138 28
4911 6136 6139 28
4912 6136 6140 28
4913 6141 6142 28
4914 6141 6143 28
4915 6141 6144 28
4916 6141 6145 28
4917 6146 6147 28
4918 6146 6148 28
4919 6146 6149 28
4920 6146 6150 28
4921 6151 6152 28
4922 6151 6153 28
4923 6151 6154 28
4924 6151 6155 28
4925 6156 6157 28
4926 6156 6158 28
4927 6156 6159 28
4928 6156 6160 28
4929 6161 6162 28
4930 6161 6163 28
4931 6161 6164 28
4932 6161 6165 28
4933 6166 6167 28
4934 6166 6168 28
4935 6166 6169 28
4936 6166 6170 28
4937 6171 6172 28
4938 6171 6173 28
4939 6171 6174 28
4940 6171 6175 28
4941 6176 6177 28
4942 6176 6178 28
4943 6176 6179 28
4944 6176 6180 28
4945 6181 6182 28
4946 6181 6183 28
4947 6181 6184 28
4948 6181 6185 28
4949 6186 6187 28
4950 6186 6188 28
4951 6186 6189 28
4952 6186 6190 28
4953 6191 6192 28
4954 6191 6193 28
4955 6191 6194 28
4956 6191 6195 28
4957 6196 6197 28
4958 6196 6198 28
4959 6196 6199 28
4960 6196 6200 28
4961 6201 6202 28
4962 6201 6203 28
4963 6201 6204 28
4964 6201 6205 28
4965 6206 6207 28
4966 6206 6208 28
4967 6206 6209 28
4968 6206 6210 28
4969 6211 6212 28
4970 6211 6213 28
4971 6211 6214 28
4972 6211 6215 28
4973 6216 6217 28
4974 6216 6218 28
4975 6216 6219 28
4976 6216 6220 28
4977 6221 6222 28
4978 6221 6223 28
4979 6221 6224 28
4980 6221 6225 28
4981 6226 6227 28
4982 6226 6228 28
4983 6226 6229 28
4984 6226 6230 28
4985 6231 6232 28
4986 6231 6233 28
4987 6231 6234 28
4988 6231 6235 28
4989 6236 6237 28
4990 6236 6238 28
4991 6236 6239 28
4992 6236 6240 28
4993 6241 6242 28
4994 6241 6243 28
4995 6241 6244 28
4996 6241 6245 28
4997 6246 6247 28
4998 6246 6248 28
4999 6246 6249 28
5000 6246 6250 28
5001 6251 6252 28
5002 6251 6253 28
5003 6251 6254 28
5004 6251 6255 28
5005 6256 6257 28
5006 6256 6258 28
5007 6256 6259 28
5008 6256 6260 28
5009 6261 6262 28
5010 6261 6263 28
5011 6261 6264 28
5012 6261 6265 28
5013 6266 6267 28
5014 6266 6268 28
5015 6266 6269 28
5016 6266 6270 28
5017 6271 6272 28
5018 6271 6273 28
5019 6271 6274 28
5020 6271 6275 28
5021 6276 6277 28
5022 6276 6278 28
5023 6276 6279 28
5024 6276 6280 28
5025 6281 6282 28
5026 6281 6283 28
5027 6281 6284 28
5028 6281 6285 28
5029 6286 6287 28
5030 6286 6288 28
5031 6286 6289 28
5032 6286 6290 28
5033 6291 6292 28
5034 6291 6293 28
5035 6291 6294 28
5036 6291 6295 28
5037 6296 6297 28
5038 6296 6298 28
5039 6296 6299 28
5040 6296 6300 28
5041 6301 6302 28
5042 6301 6303 28
5043 6301 6304 28
5044 6301 6305 28
5045 6306 6307 28
5046 6306 6308 28
5047 6306 6309 28
5048 6306 6310 28
5049 6311 6312 28
5050 6311 6313 28
5051 6311 6314 28
5052 6311 6315 28
5053 6316 6317 28
5054 6316 6318 28
5055 6316 6319 28
5056 6316 6320 28
5057 6321 6322 28
5058 6321 6323 28
5059 6321 6324 28
5060 6321 6325 28
5061 6326 6327 28
5062 6326 6328 28
5063 6326 6329 28
5064 6326 6330 28
5065 6331 6332 28
5066 6331 6333 28
5067 6331 6334 28
5068 6331 6335 28
5069 6336 6337 28
5070 6336 6338 28
5071 6336 6339 28
5072 6336 6340 28
5073 6341 6342 28
5074 6341 6343 28
5075 6341 6344 28
5076 6341 6345 28
5077 6346 6347 28
5078 6346 6348 28
5079 6346 6349 28
5080 6346 6350 28
5081 6351 6352 28
5082 6351 6353 28
5083 6351 6354 28
5084 6351 6355 28
5085 6356 6357 28
5086 6356 6358 28
5087 6356 6359 28
5088 6356 6360 28
5089 6361 6362 28
5090 6361 6363 28
5091 6361 6364 28
5092 6361 6365 28
5093 6366 6367 28
5094 6366 6368 28
5095 6366 6369 28
5096 6366 6370 28
5097 6371 6372 28
5098 6371 6373 28
5099 6371 6374 28
5100 6371 6375 28
5101 6376 6377 28
5102 6376 6378 28
5103 6376 6379 28
5104 6376 6380 28
5105 6381 6382 28
5106 6381 6383 28
5107 6381 6384 28
5108 6381 6385 28
5109 6386 6387 28
5110 6386 6388 28
5111 6386 6389 28
5112 6386 6390 28
5113 6391 6392 28
5114 6391 6393 28
5115 6391 6394 28
5116 6391 6395 28
5117 6396 6397 28
5118 6396 6398 28
5119 6396 6399 28
5120 6396 6400 28
5121 6401 6402 28
5122 6401 6403 28
5123 6401 6404 28
5124 6401 6405 28
5125 6406 6407 28
5126 6406 6408 28
5127 6406 6409 28
5128 6406 6410 28
5129 6411 6412 28
5130 6411 6413 28
5131 6411 6414 28
5132 6411 6415 28
5133 6416 6417 28
5134 6416 6418 28
5135 6416 6419 28
5136 6416 6420 28
5137 6421 6422 28
5138 6421 6423 28
5139 6421 6424 28
5140 6421 6425 28
5141 6426 6427 28
5142 6426 6428 28
5143 6426 6429 28
5144 6426 6430 28
5145 6431 6432 28
5146 6431 6433 28
5147 6431 6434 28
5148 6431 6435 28
5149 6436 6437 28
5150 6436 6438 28
5151 6436 6439 28
5152 6436 6440 28
5153 6441 6442 28
5154 6441 6443 28
5155 6441 6444 28
5156 6441 6445 28
5157 6446 6447 28
5158 6446 6448 28
5159 6446 6449 28
5160 6446 6450 28
5161 6451 6452 28
5162 6451 6453 28
5163 6451 6454 28
5164 6451 6455 28
5165 6456 6457 28
5166 6456 6458 28
5167 6456 6459 28
5168 6456 6460 28
5169 6461 6462 28
5170 6461 6463 28
5171 6461 6464 28
5172 6461 6465 28
5173 6466 6467 28
5174 6466 6468 28
5175 6466 6469 28
5176 6466 6470 28
5177 6471 6472 28
5178 6471 6473 28
5179 6471 6474 28
5180 6471 6475 28
5181 6476 6477 28
5182 6476 6478 28
5183 6476 6479 28
5184 6476 6480 28
5185 6481 6482 28
5186 6481 6483 28
5187 6481 6484 28
5188 6481 6485 28
5189 6486 6487 28
5190 6486 6488 28
5191 6486 6489 28
5192 6486 6490 28
5193 6491 6492 28
5194 6491 6493 28
5195 6491 6494 28
5196 6491 6495 28
5197 6496 6497 28
5198 6496 6498 28
5199 6496 6499 28
5200 6496 6500 28
5201 6501 6502 28
5202 6501 6503 28
5203 6501 6504 28
5204 6501 6505 28
5205 6506 6507 28
5206 6506 6508 28
5207 6506 6509 28
5208 6506 6510 28
5209 6511 6512 28
5210 6511 6513 28
5211 6511 6514 28
5212 6511 6515 28
5213 6516 6517 28
5214 6516 6518 28
5215 6516 6519 28
5216 6516 6520 28
5217 6521 6522 28
5218 6521 6523 28
5219 6521 6524 28
5220 6521 6525 28
5221 6526 6527 28
5222 6526 6528 28
5223 6526 6529 28
5224 6526 6530 28
5225 6531 6532 28
5226 6531 6533 28
5227 6531 6534 28
5228 6531 6535 28
5229 6536 6537 28
5230 6536 6538 28
5231 6536 6539 28
5232 6536 6540 28
5233 6541 6542 28
5234 6541 6543 28
5235 6541 6544 28
5236 6541 6545 28
5237 6546 6547 28
5238 6546 6548 28
5239 6546 6549 28
5240 6546 6550 28
5241 6551 6552 28
5242 6551 6553 28
5243 6551 6554 28
5244 6551 6555 28
5245 6556 6557 28
5246 6556 6558 28
5247 6556 6559 28
5248 6556 6560 28
5249 6561 6562 28
5250 6561 6563 28
5251 6561 6564 28
5252 6561 6565 28
5253 6566 6567 28
5254 6566 6568 28
5255 6566 6569 28
5256 6566 6570 28
5257 6571 6572 28
5258 6571 6573 28
5259 6571 6574 28
5260 6571 6575 28
5261 6576 6577 28
5262 6576 6578 28
5263 6576 6579 28
5264 6576 6580 28
5265 6581 6582 28
5266 6581 6583 28
5267 6581 6584 28
5268 6581 6585 28
5269 6586 6587 28
5270 6586 6588 28
5271 6586 6589 28
5272 6586 6590 28
5273 6591 6592 28
5274 6591 6593 28
5275 6591 6594 28
5276 6591 6595 28
5277 6596 6597 28
5278 6596 6598 28
5279 6596 6599 28
5280 6596 6600 28
5281 6601 6602 28
5282 6601 6603 28
5283 6601 6604 28
5284 6601 6605 28
5285 6606 6607 28
5286 6606 6608 28
5287 6606 6609 28
5288 6606 6610 28
5289 6611 6612 28
5290 6611 6613 28
5291 6611 6614 28
5292 6611 6615 28
5293 6616 6617 28
5294 6616 6618 28
5295 6616 6619 28
5296 6616 6620 28
5297 6621 6622 28
5298 6621 6623 28
5299 6621 6624 28
5300 6621 6625 28
5301 6626 6627 28
5302 6626 6628 28
5303 6626 6629 28
5304 6626 6630 28
5305 6631 6632 28
5306 6631 6633 28
5307 6631 6634 28
5308 6631 6635 28
5309 6636 6637 28
5310 6636 6638 28
5311 6636 6639 28
5312 6636 6640 28
5313 6641 6642 28
5314 6641 6643 28
5315 6641 6644 28
5316 6641 6645 28
5317 6646 6647 28
5318 6646 6648 28
5319 6646 6649 28
5320 6646 6650 28
5321 6651 6652 28
5322 6651 6653 28
5323 6651 6654 28
5324 6651 6655 28
5325 6656 6657 28
5326 6656 6658 28
5327 6656 6659 28
5328 6656 6660 28
5329 6661 6662 28
5330 6661 6663 28
5331 6661 6664 28
5332 6661 6665 28
5333 6666 6667 28
5334 6666 6668 28
5335 6666 6669 28
5336 6666 6670 28
5337 6671 6672 28
5338 6671 6673 28
5339 6671 6674 28
5340 6671 6675 28
5341 6676 6677 28
5342 6676 6678 28
5343 6676 6679 28
5344 6676 6680 28
5345 6681 6682 28
5346 6681 6683 28
5347 6681 6684 28
5348 6681 6685 28
5349 6686 6687 28
5350 6686 6688 28
5351 6686 6689 28
5352 6686 6690 28
5353 6691 6692 28
5354 6691 6693 28
5355 6691 6694 28
5356 6691 6695 28
5357 6696 6697 28
5358 6696 6698 28
5359 6696 6699 28
5360 6696 6700 28
5361 6701 6702 28
5362 6701 6703 28
5363 6701 6704 28
5364 6701 6705 28
5365 6706 6707 28
5366 6706 6708 28
5367 6706 6709 28
5368 6706 6710 28
5369 6711 6712 28
5370 6711 6713 28
5371 6711 6714 28
5372 6711 6715 28
5373 6716 6717 28
5374 6716 6718 28
5375 6716 6719 28
5376 6716 6720 28
5377 6721 6722 28
5378 6721 6723 28
5379 6721 6724 28
5380 6721 6725 28
5381 6726 6727 28
5382 6726 6728 28
5383 6726 6729 28
5384 6726 6730 28
5385 6731 6732 28
5386 6731 6733 28
5387 6731 6734 28
5388 6731 6735 28
5389 6736 6737 28
5390 6736 6738 28
5391 6736 6739 28
5392 6736 6740 28
5393 6741 6742 28
5394 6741 6743 28
5395 6741 6744 28
5396 6741 6745 28
5397 6746 6747 28
5398 6746 6748 28
5399 6746 6749 28
5400 6746 6750 28
5401 6751 6752 28
5402 6751 6753 28
5403 6751 6754 28
5404 6751 6755 28
5405 6756 6757 28
5406 6756 6758 28
5407 6756 6759 28
5408 6756 6760 28
5409 6761 6762 28
5410 6761 6763 28
5411 6761 6764 28
5412 6761 6765 28
5413 6766 6767 28
5414 6766 6768 28
5415 6766 6769 28
5416 6766 6770 28
5417 6771 6772 28
5418 6771 6773 28
5419 6771 6774 28
5420 6771 6775 28
5421 6776 6777 28
5422 6776 6778 28
5423 6776 6779 28
5424 6776 6780 28
5425 6781 6782 28
5426 6781 6783 28
5427 6781 6784 28
5428 6781 6785 28
5429 6786 6787 28
5430 6786 6788 28
5431 6786 6789 28
5432 6786 6790 28
5433 6791 6792 28
5434 6791 6793 28
5435 6791 6794 28
5436 6791 6795 28
5437 6796 6797 28
5438 6796 6798 28
5439 6796 6799 28
5440 6796 6800 28
5441 6801 6802 28
5442 6801 6803 28
5443 6801 6804 28
5444 6801 6805 28
5445 6806 6807 28
5446 6806 6808 28
5447 6806 6809 28
5448 6806 6810 28
5449 6811 6812 28
5450 6811 6813 28
5451 6811 6814 28
5452 6811 6815 28
5453 6816 6817 28
5454 6816 6818 28
5455 6816 6819 28
5456 6816 6820 28
5457 6821 6822 28
5458 6821 6823 28
5459 6821 6824 28
5460 6821 6825 28
5461 6826 6827 28
5462 6826 6828 28
5463 6826 6829 28
5464 6826 6830 28
5465 6831 6832 28
5466 6831 6833 28
5467 6831 6834 28
5468 6831 6835 28
5469 6836 6837 28
5470 6836 6838 28
5471 6836 6839 28
5472 6836 6840 28
5473 6841 6842 28
5474 6841 6843 28
5475 6841 6844 28
5476 6841 6845 28
5477 6846 6847 28
5478 6846 6848 28
5479 6846 6849 28
5480 6846 6850 28
5481 6851 6852 28
5482 6851 6853 28
5483 6851 6854 28
5484 6851 6855 28
5485 6856 6857 28
5486 6856 6858 28
5487 6856 6859 28
5488 6856 6860 28
5489 6861 6862 28
5490 6861 6863 28
5491 6861 6864 28
5492 6861 6865 28
5493 6866 6867 28
5494 6866 6868 28
5495 6866 6869 28
5496 6866 6870 28
5497 6871 6872 28
5498 6871 6873 28
5499 6871 6874 28
5500 6871 6875 28
5501 6876 6877 28
5502 6876 6878 28
5503 6876 6879 28
5504 6876 6880 28
5505 6881 6882 28
5506 6881 6883 28
5507 6881 6884 28
5508 6881 6885 28
5509 6886 6887 28
5510 6886 6888 28
5511 6886 6889 28
5512 6886 6890 28
5513 6891 6892 28
5514 6891 6893 28
5515 6891 6894 28
5516 6891 6895 28
5517 6896 6897 28
5518 6896 6898 28
5519 6896 6899 28
5520 6896 6900 28
5521 6901 6902 28
5522 6901 6903 28
5523 6901 6904 28
5524 6901 6905 28
5525 6906 6907 28
5526 6906 6908 28
5527 6906 6909 28
5528 6906 6910 28
5529 6911 6912 28
5530 6911 6913 28
5531 6911 6914 28
5532 6911 6915 28
5533 6916 6917 28
5534 6916 6918 28
5535 6916 6919 28
5536 6916 6920 28
5537 6921 6922 28
5538 6921 6923 28
5539 6921 6924 28
5540 6921 6925 28
5541 6926 6927 28
5542 6926 6928 28
5543 6926 6929 28
5544 6926 6930 28
5545 6931 6932 28
5546 6931 6933 28
5547 6931 6934 28
5548 6931 6935 28
5549 6936 6937 28
5550 6936 6938 28
5551 6936 6939 28
5552 6936 6940 28
5553 6941 6942 28
5554 6941 6943 28
5555 6941 6944 28
5556 6941 6945 28
5557 6946 6947 28
5558 6946 6948 28
5559 6946 6949 28
5560 6946 6950 28
5561 6951 6952 28
5562 6951 6953 28
5563 6951 6954 28
5564 6951 6955 28
5565 6956 6957 28
5566 6956 6958 28
5567 6956 6959 28
5568 6956 6960 28
5569 6961 6962 28
5570 6961 6963 28
5571 6961 6964 28
5572 6961 6965 28
5573 6966 6967 28
5574 6966 6968 28
5575 6966 6969 28
5576 6966 6970 28
5577 6971 6972 28
5578 6971 6973 28
5579 6971 6974 28
5580 6971 6975 28
5581 6976 6977 28
5582 6976 6978 28
5583 6976 6979 28
5584 6976 6980 28
5585 6981 6982 28
5586 6981 6983 28
5587 6981 6984 28
5588 6981 6985 28
5589 6986 6987 28
5590 6986 6988 28
5591 6986 6989 28
5592 6986 6990 28
5593 6991 6992 28
5594 6991 6993 28
5595 6991 6994 28
5596 6991 6995 28
5597 6996 6997 28
5598 6996 6998 28
5599 6996 6999 28
5600 6996 7000 28
5601 7001 7002 28
5602 7001 7003 28
5603 7001 7004 28
5604 7001 7005 28
5605 7006 7007 28
5606 7006 7008 28
5607 7006 7009 28
5608 7006 7010 28
5609 7011 7012 28
5610 7011 7013 28
5611 7011 7014 28
5612 7011 7015 28
5613 7016 7017 28
5614 7016 7018 28
5615 7016 7019 28
5616 7016 7020 28
5617 7021 7022 28
5618 7021 7023 28
5619 7021 7024 28
5620 7021 7025 28
5621 7026 7027 28
5622 7026 7028 28
5623 7026 7029 28
5624 7026 7030 28
5625 7031 7032 28
5626 7031 7033 28
5627 7031 7034 28
5628 7031 7035 28
5629 7036 7037 28
5630 7036 7038 28
5631 7036 7039 28
5632 7036 7040 28
5633 7041 7042 28
5634 7041 7043 28
5635 7041 7044 28
5636 7041 7045 28
5637 7046 7047 28
5638 7046 7048 28
5639 7046 7049 28
5640 7046 7050 28
5641 7051 7052 28
5642 7051 7053 28
5643 7051 7054 28
5644 7051 7055 28
5645 7056 7057 28
5646 7056 7058 28
5647 7056 7059 28
5648 7056 7060 28
5649 7061 7062 28
5650 7061 7063 28
5651 7061 7064 28
5652 7061 7065 28
5653 7066 7067 28
5654 7066 7068 28
5655 7066 7069 28
5656 7066 7070 28
5657 7071 7072 28
5658 7071 7073 28
5659 7071 7074 28
5660 7071 7075 28
5661 7076 7077 28
5662 7076 7078 28
5663 7076 7079 28
5664 7076 7080 28
5665 7081 7082 28
5666 7081 7083 28
5667 7081 7084 28
5668 7081 7085 28
5669 7086 7087 28
5670 7086 7088 28
5671 7086 7089 28
5672 7086 7090 28
5673 7091 7092 28
5674 7091 7093 28
5675 7091 7094 28
5676 7091 7095 28
5677 7096 7097 28
5678 7096 7098 28
5679 7096 7099 28
5680 7096 7100 28
5681 7101 7102 28
5682 7101 7103 28
5683 7101 7104 28
5684 7101 7105 28
5685 7106 7107 28
5686 7106 7108 28
5687 7106 7109 28
5688 7106 7110 28
5689 7111 7112 28
5690 7111 7113 28
5691 7111 7114 28
5692 7111 7115 28
5693 7116 7117 28
5694 7116 7118 28
5695 7116 7119 28
5696 7116 7120 28
5697 7121 7122 28
5698 7121 7123 28
5699 7121 7124 28
5700 7121 7125 28
5701 7126 7127 28
5702 7126 7128 28
5703 7126 7129 28
5704 7126 7130 28
5705 7131 7132 28
5706 7131 7133 28
5707 7131 7134 28
5708 7131 7135 28
5709 7136 7137 28
5710 7136 7138 28
5711 7136 7139 28
5712 7136 7140 28
5713 7141 7142 28
5714 7141 7143 28
5715 7141 7144 28
5716 7141 7145 28
5717 7146 7147 28
5718 7146 7148 28
5719 7146 7149 28
5720 7146 7150 28
5721 7151 7152 28
5722 7151 7153 28
5723 7151 7154 28
5724 7151 7155 28
5725 7156 7157 28
5726 7156 7158 28
5727 7156 7159 28
5728 7156 7160 28
5729 7161 7162 28
5730 7161 7163 28
5731 7161 7164 28
5732 7161 7165 28
5733 7166 7167 28
5734 7166 7168 28
5735 7166 7169 28
5736 7166 7170 28
5737 7171 7172 28
5738 7171 7173 28
5739 7171 7174 28
5740 7171 7175 28
5741 7176 7177 28
5742 7176 7178 28
5743 7176 7179 28
5744 7176 7180 28
5745 7181 7182 28
5746 7181 7183 28
5747 7181 7184 28
5748 7181 7185 28
5749 7186 7187 28
5750 7186 7188 28
5751 7186 7189 28
5752 7186 7190 28
5753 7191 7192 28
5754 7191 7193 28
5755 7191 7194 28
5756 7191 7195 28
5757 7196 7197 28
5758 7196 7198 28
5759 7196 7199 28
5760 7196 7200 28
5761 7201 7202 28
5762 7201 7203 28
5763 7201 7204 28
5764 7201 7205 28
5765 7206 7207 28
5766 7206 7208 28
5767 7206 7209 28
5768 7206 7210 28
5769 7211 7212 28
5770 7211 7213 28
5771 7211 7214 28
5772 7211 7215 28
5773 7216 7217 28
5774 7216 7218 28
5775 7216 7219 28
5776 7216 7220 28
5777 7221 7222 28
5778 7221 7223 28
5779 7221 7224 28
5780 7221 7225 28
5781 7226 7227 28
5782 7226 7228 28
5783 7226 7229 28
5784 7226 7230 28
5785 7231 7232 28
5786 7231 7233 28
5787 7231 7234 28
5788 7231 7235 28
5789 7236 7237 28
5790 7236 7238 28
5791 7236 7239 28
5792 7236 7240 28
5793 7241 7242 28
5794 7241 7243 28
5795 7241 7244 28
5796 7241 7245 28
5797 7246 7247 28
5798 7246 7248 28
5799 7246 7249 28
5800 7246 7250 28
5801 7251 7252 28
5802 7251 7253 28
5803 7251 7254 28
5804 7251 7255 28
5805 7256 7257 28
5806 7256 7258 28
5807 7256 7259 28
5808 7256 7260 28
5809 7261 7262 28
5810 7261 7263 28
5811 7261 7264 28
5812 7261 7265 28
5813 7266 7267 28
5814 7266 7268 28
5815 7266 7269 28
5816 7266 7270 28
5817 7271 7272 28
5818 7271 7273 28
5819 7271 7274 28
5820 7271 7275 28
5821 7276 7277 28
5822 7276 7278 28
5823 7276 7279 28
5824 7276 7280 28
5825 7281 7282 28
5826 7281 7283 28
5827 7281 7284 28
5828 7281 7285 28
5829 7286 7287 28
5830 7286 7288 28
5831 7286 7289 28
5832 7286 7290 28
5833 7291 7292 28
5834 7291 7293 28
5835 7291 7294 28
5836 7291 7295 28
5837 7296 7297 28
5838 7296 7298 28
5839 7296 7299 28
5840 7296 7300 28
5841 7301 7302 28
5842 7301 7303 28
5843 7301 7304 28
5844 7301 7305 28
5845 7306 7307 28
5846 7306 7308 28
5847 7306 7309 28
5848 7306 7310 28
5849 7311 7312 28
5850 7311 7313 28
5851 7311 7314 28
5852 7311 7315 28
5853 7316 7317 28
5854 7316 7318 28
5855 7316 7319 28
5856 7316 7320 28
5857 7321 7322 28
5858 7321 7323 28
5859 7321 7324 28
5860 7321 7325 28
5861 7326 7327 28
5862 7326 7328 28
5863 7326 7329 28
5864 7326 7330 28
5865 7331 7332 28
5866 7331 7333 28
5867 7331 7334 28
5868 7331 7335 28
5869 7336 7337 28
5870 7336 7338 28
5871 7336 7339 28
5872 7336 7340 28
5873 7341 7342 28
5874 7341 7343 28
5875 7341 7344 28
5876 7341 7345 28
5877 7346 7347 28
5878 7346 7348 28
5879 7346 7349 28
5880 7346 7350 28
5881 7351 7352 28
5882 7351 7353 28
5883 7351 7354 28
5884 7351 7355 28
5885 7356 7357 28
5886 7356 7358 28
5887 7356 7359 28
5888 7356 7360 28
5889 7361 7362 28
5890 7361 7363 28
5891 7361 7364 28
5892 7361 7365 28
5893 7366 7367 28
5894 7366 7368 28
5895 7366 7369 28
5896 7366 7370 28
5897 7371 7372 28
5898 7371 7373 28
5899 7371 7374 28
5900 7371 7375 28
5901 7376 7377 28
5902 7376 7378 28
5903 7376 7379 28
5904 7376 7380 28
5905 7381 7382 28
5906 7381 7383 28
5907 7381 7384 28
5908 7381 7385 28
5909 7386 7387 28
5910 7386 7388 28
5911 7386 7389 28
5912 7386 7390 28
5913 7391 7392 28
5914 7391 7393 28
5915 7391 7394 28
5916 7391 7395 28
5917 7396 7397 28
5918 7396 7398 28
5919 7396 7399 28
5920 7396 7400 28
5921 7401 7402 28
5922 7401 7403 28
5923 7401 7404 28
5924 7401 7405 28
5925 7406 7407 28
5926 7406 7408 28
5927 7406 7409 28
5928 7406 7410 28
5929 7411 7412 28
5930 7411 7413 28
5931 7411 7414 28
5932 7411 7415 28
5933 7416 7417 28
5934 7416 7418 28
5935 7416 7419 28
5936 7416 7420 28
5937 7421 7422 28
5938 7421 7423 28
5939 7421 7424 28
5940 7421 7425 28
5941 7426 7427 28
5942 7426 7428 28
5943 7426 7429 28
5944 7426 7430 28
5945 7431 7432 28
5946 7431 7433 28
5947 7431 7434 28
5948 7431 7435 28
5949 7436 7437 28
5950 7436 7438 28
5951 7436 7439 28
5952 7436 7440 28
5953 7441 7442 28
5954 7441 7443 28
5955 7441 7444 28
5956 7441 7445 28
5957 7446 7447 28
5958 7446 7448 28
5959 7446 7449 28
5960 7446 7450 28
5961 7451 7452 28
5962 7451 7453 28
5963 7451 7454 28
5964 7451 7455 28
5965 7456 7457 28
5966 7456 7458 28
5967 7456 7459 28
5968 7456 7460 28
5969 7461 7462 28
5970 7461 7463 28
5971 7461 7464 28
5972 7461 7465 28
5973 7466 7467 28
5974 7466 7468 28
5975 7466 7469 28
5976 7466 7470 28
5977 7471 7472 28
5978 7471 7473 28
5979 7471 7474 28
5980 7471 7475 28
5981 7476 7477 28
5982 7476 7478 28
5983 7476 7479 28
5984 7476 7480 28
5985 7481 7482 28
5986 7481 7483 28
5987 7481 7484 28
5988 7481 7485 28
5989 7486 7487 28
5990 7486 7488 28
5991 7486 7489 28
5992 7486 7490 28
5993 7491 7492 28
5994 7491 7493 28
5995 7491 7494 28
5996 7491 7495 28
5997 7496 7497 28
5998 7496 7498 28
5999 7496 7499 28
6000 7496 7500 28
6001 7501 7502 28
6002 7501 7503 28
6003 7501 7504 28
6004 7501 7505 28
6005 7506 7507 28
6006 7506 7508 28
6007 7506 7509 28
6008 7506 7510 28
6009 7511 7512 28
6010 7511 7513 28
6011 7511 7514 28
6012 7511 7515 28
6013 7516 7517 28
6014 7516 7518 28
6015 7516 7519 28
6016 7516 7520 28
6017 7521 7522 28
6018 7521 7523 28
6019 7521 7524 28
6020 7521 7525 28
6021 7526 7527 28
6022 7526 7528 28
6023 7526 7529 28
6024 7526 7530 28
6025 7531 7532 28
6026 7531 7533 28
6027 7531 7534 28
6028 7531 7535 28
6029 7536 7537 28
6030 7536 7538 28
6031 7536 7539 28
6032 7536 7540 28
6033 7541 7542 28
6034 7541 7543 28
6035 7541 7544 28
6036 7541 7545 28
6037 7546 7547 28
6038 7546 7548 28
6039 7546 7549 28
6040 7546 7550 28
6041 7551 7552 28
6042 7551 7553 28
6043 7551 7554 28
6044 7551 7555 28
6045 7556 7557 28
6046 7556 7558 28
6047 7556 7559 28
6048 7556 7560 28
6049 7561 7562 28
6050 7561 7563 28
6051 7561 7564 28
6052 7561 7565 28
6053 7566 7567 28
6054 7566 7568 28
6055 7566 7569 28
6056 7566 7570 28
6057 7571 7572 28
6058 7571 7573 28
6059 7571 7574 28
6060 7571 7575 28
6061 7576 7577 28
6062 7576 7578 28
6063 7576 7579 28
6064 7576 7580 28
6065 7581 7582 28
6066 7581 7583 28
6067 7581 7584 28
6068 7581 7585 28
6069 7586 7587 28
6070 7586 7588 28
6071 7586 7589 28
6072 7586 7590 28
6073 7591 7592 28
6074 7591 7593 28
6075 7591 7594 28
6076 7591 7595 28
6077 7596 7597 28
6078 7596 7598 28
6079 7596 7599 28
6080 7596 7600 28
6081 7601 7602 28
6082 7601 7603 28
6083 7601 7604 28
6084 7601 7605 28
6085 7606 7607 28
6086 7606 7608 28
6087 7606 7609 28
6088 7606 7610 28
6089 7611 7612 28
6090 7611 7613 28
6091 7611 7614 28
6092 7611 7615 28
6093 7616 7617 28
6094 7616 7618 28
6095 7616 7619 28
6096 7616 7620 28
6097 7621 7622 28
6098 7621 7623 28
6099 7621 7624 28
6100 7621 7625 28
6101 7626 7627 28
6102 7626 7628 28
6103 7626 7629 28
6104 7626 7630 28
6105 7631 7632 28
6106 7631 7633 28
6107 7631 7634 28
6108 7631 7635 28
6109 7636 7637 28
6110 7636 7638 28
6111 7636 7639 28
6112 7636 7640 28
6113 7641 7642 28
6114 7641 7643 28
6115 7641 7644 28
6116 7641 7645 28
6117 7646 7647 28
6118 7646 7648 28
6119 7646 7649 28
6120 7646 7650 28
6121 7651 7652 28
6122 7651 7653 28
6123 7651 7654 28
6124 7651 7655 28
6125 7656 7657 28
6126 7656 7658 28
6127 7656 7659 28
6128 7656 7660 28
6129 7661 7662 28
6130 7661 7663 28
6131 7661 7664 28
6132 7661 7665 28
6133 7666 7667 28
6134 7666 7668 28
6135 7666 7669 28
6136 7666 7670 28
6137 7671 7672 28
6138 7671 7673 28
6139 7671 7674 28
6140 7671 7675 28
6141 7676 7677 28
6142 7676 7678 28
6143 7676 7679 28
6144 7676 7680 28
6145 7681 7682 28
6146 7681 7683 28
6147 7681 7684 28
6148 7681 7685 28
6149 7686 7687 28
6150 7686 7688 28
6151 7686 7689 28
6152 7686 7690 28
6153 7691 7692 28
6154 7691 7693 28
6155 7691 7694 28
6156 7691 7695 28
6157 7696 7697 28
6158 7696 7698 28
6159 7696 7699 28
6160 7696 7700 28
6161 7701 7702 28
6162 7701 7703 28
6163 7701 7704 28
6164 7701 7705 28
6165 7706 7707 28
6166 7706 7708 28
6167 7706 7709 28
6168 7706 7710 28
6169 7711 7712 28
6170 7711 7713 28
6171 7711 7714 28
6172 7711 7715 28
6173 7716 7717 28
6174 7716 7718 28
6175 7716 7719 28
6176 7716 7720 28
6177 7721 7722 28
6178 7721 7723 28
6179 7721 7724 28
6180 7721 7725 28
6181 7726 7727 28
6182 7726 7728 28
6183 7726 7729 28
6184 7726 7730 28
6185 7731 7732 28
6186 7731 7733 28
6187 7731 7734 28
6188 7731 7735 28
6189 7736 7737 28
6190 7736 7738 28
6191 7736 7739 28
6192 7736 7740 28
6193 7741 7742 28
6194 7741 7743 28
6195 7741 7744 28
6196 7741 7745 28
6197 7746 7747 28
6198 7746 7748 28
6199 7746 7749 28
6200 7746 7750 28
6201 7751 7752 28
6202 7751 7753 28
6203 7751 7754 28
6204 7751 7755 28
6205 7756 7757 28
6206 7756 7758 28
6207 7756 7759 28
6208 7756 7760 28
6209 7761 7762 28
6210 7761 7763 28
6211 7761 7764 28
6212 7761 7765 28
6213 7766 7767 28
6214 7766 7768 28
6215 7766 7769 28
6216 7766 7770 28
6217 7771 7772 28
6218 7771 7773 28
6219 7771 7774 28
6220 7771 7775 28
6221 7776 7777 28
6222 7776 7778 28
6223 7776 7779 28
6224 7776 7780 28
6225 7781 7782 28
6226 7781 7783 28
6227 7781 7784 28
6228 7781 7785 28
6229 7786 7787 28
6230 7786 7788 28
6231 7786 7789 28
6232 7786 7790 28
6233 7791 7792 28
6234 7791 7793 28
6235 7791 7794 28
6236 7791 7795 28
6237 7796 7797 28
6238 7796 7798 28
6239 7796 7799 28
6240 7796 7800 28
6241 7801 7802 28
6242 7801 7803 28
6243 7801 7804 28
6244 7801 7805 28
6245 7806 7807 28
6246 7806 7808 28
6247 7806 7809 28
6248 7806 7810 28
6249 7811 7812 28
6250 7811 7813 28
6251 7811 7814 28
6252 7811 7815 28
6253 7816 7817 28
6254 7816 7818 28
6255 7816 7819 28
6256 7816 7820 28
6257 7821 7822 28
6258 7821 7823 28
6259 7821 7824 28
6260 7821 7825 28
6261 7826 7827 28
6262 7826 7828 28
6263 7826 7829 28
6264 7826 7830 28
6265 7831 7832 28
6266 7831 7833 28
6267 7831 7834 28
6268 7831 7835 28
6269 7836 7837 28
6270 7836 7838 28
6271 7836 7839 28
6272 7836 7840 28
6273 7841 7842 28
6274 7841 7843 28
6275 7841 7844 28
6276 7841 7845 28
6277 7846 7847 28
6278 7846 7848 28
6279 7846 7849 28
6280 7846 7850 28
6281 7851 7852 28
6282 7851 7853 28
6283 7851 7854 28
6284 7851 7855 28
6285 7856 7857 28
6286 7856 7858 28
6287 7856 7859 28
6288 7856 7860 28
6289 7861 7862 28
6290 7861 7863 28
6291 7861 7864 28
6292 7861 7865 28
6293 7866 7867 28
6294 7866 7868 28
6295 7866 7869 28
6296 7866 7870 28
6297 7871 7872 28
6298 7871 7873 28
6299 7871 7874 28
6300 7871 7875 28
6301 7876 7877 28
6302 7876 7878 28
6303 7876 7879 28
6304 7876 7880 28
6305 7881 7882 28
6306 7881 7883 28
6307 7881 7884 28
6308 7881 7885 28
6309 7886 7887 28
6310 7886 7888 28
6311 7886 7889 28
6312 7886 7890 28
6313 7891 7892 28
6314 7891 7893 28
6315 7891 7894 28
6316 7891 7895 28
6317 7896 7897 28
6318 7896 7898 28
6319 7896 7899 28
6320 7896 7900 28
6321 7901 7902 28
6322 7901 7903 28
6323 7901 7904 28
6324 7901 7905 28
6325 7906 7907 28
6326 7906 7908 28
6327 7906 7909 28
6328 7906 7910 28
6329 7911 7912 28
6330 7911 7913 28
6331 7911 7914 28
6332 7911 7915 28
6333 7916 7917 28
6334 7916 7918 28
6335 7916 7919 28
6336 7916 7920 28
6337 7921 7922 28
6338 7921 7923 28
6339 7921 7924 28
6340 7921 7925 28
6341 7926 7927 28
6342 7926 7928 28
6343 7926 7929 28
6344 7926 7930 28
6345 7931 7932 28
6346 7931 7933 28
6347 7931 7934 28
6348 7931 7935 28
6349 7936 7937 28
6350 7936 7938 28
6351 7936 7939 28
6352 7936 7940 28
6353 7941 7942 28
6354 7941 7943 28
6355 7941 7944 28
6356 7941 7945 28
6357 7946 7947 28
6358 7946 7948 28
6359 7946 7949 28
6360 7946 7950 28
6361 7951 7952 28
6362 7951 7953 28
6363 7951 7954 28
6364 7951 7955 28
6365 7956 7957 28
6366 7956 7958 28
6367 7956 7959 28
6368 7956 7960 28
6369 7961 7962 28
6370 7961 7963 28
6371 7961 7964 28
6372 7961 7965 28
6373 7966 7967 28
6374 7966 7968 28
6375 7966 7969 28
6376 7966 7970 28
6377 7971 7972 28
6378 7971 7973 28
6379 7971 7974 28
6380 7971 7975 28
6381 7976 7977 28
6382 7976 7978 28
6383 7976 7979 28
6384 7976 7980 28
6385 7981 7982 28
6386 7981 7983 28
6387 7981 7984 28
6388 7981 7985 28
6389 7986 7987 28
6390 7986 7988 28
6391 7986 7989 28
6392 7986 7990 28
6393 7991 7992 28
6394 7991 7993 28
6395 7991 7994 28
6396 7991 7995 28
6397 7996 7997 28
6398 7996 7998 28
6399 7996 7999 28
6400 7996 8000 28
6401 8001 8002 28
6402 8001 8003 28
6403 8001 8004 28
6404 8001 8005 28
6405 8006 8007 28
6406 8006 8008 28
6407 8006 8009 28
6408 8006 8010 28
6409 8011 8012 28
6410 8011 8013 28
6411 8011 8014 28
6412 8011 8015 28
6413 8016 8017 28
6414 8016 8018 28
6415 8016 8019 28
6416 8016 8020 28
6417 8021 8022 28
6418 8021 8023 28
6419 8021 8024 28
6420 8021 8025 28
6421 8026 8027 28
6422 8026 8028 28
6423 8026 8029 28
6424 8026 8030 28
6425 8031 8032 28
6426 8031 8033 28
6427 8031 8034 28
6428 8031 8035 28
6429 8036 8037 28
6430 8036 8038 28
6431 8036 8039 28
6432 8036 8040 28
6433 8041 8042 28
6434 8041 8043 28
6435 8041 8044 28
6436 8041 8045 28
6437 8046 8047 28
6438 8046 8048 28
6439 8046 8049 28
6440 8046 8050 28
6441 8051 8052 28
6442 8051 8053 28
6443 8051 8054 28
6444 8051 8055 28
6445 8056 8057 28
6446 8056 8058 28
6447 8056 8059 28
6448 8056 8060 28
6449 8061 8062 28
6450 8061 8063 28
6451 8061 8064 28
6452 8061 8065 28
6453 8066 8067 28
6454 8066 8068 28
6455 8066 8069 28
6456 8066 8070 28
6457 8071 8072 28
6458 8071 8073 28
6459 8071 8074 28
6460 8071 8075 28
6461 8076 8077 28
6462 8076 8078 28
6463 8076 8079 28
6464 8076 8080 28
6465 8081 8082 28
6466 8081 8083 28
6467 8081 8084 28
6468 8081 8085 28
6469 8086 8087 28
6470 8086 8088 28
6471 8086 8089 28
6472 8086 8090 28
6473 8091 8092 28
6474 8091 8093 28
6475 8091 8094 28
6476 8091 8095 28
6477 8096 8097 28
6478 8096 8098 28
6479 8096 8099 28
6480 8096 8100 28
6481 8101 8102 28
6482 8101 8103 28
6483 8101 8104 28
6484 8101 8105 28
6485 8106 8107 28
6486 8106 8108 28
6487 8106 8109 28
6488 8106 8110 28
6489 8111 8112 28
6490 8111 8113 28
6491 8111 8114 28
6492 8111 8115 28
6493 8116 8117 28
6494 8116 8118 28
6495 8116 8119 28
6496 8116 8120 28
6497 8121 8122 28
6498 8121 8123 28
6499 8121 8124 28
6500 8121 8125 28
6501 8126 8127 28
6502 8126 8128 28
6503 8126 8129 28
6504 8126 8130 28
6505 8131 8132 28
6506 8131 8133 28
6507 8131 8134 28
6508 8131 8135 28
6509 8136 8137 28
6510 8136 8138 28
6511 8136 8139 28
6512 8136 8140 28
6513 8141 8142 28
6514 8141 8143 28
6515 8141 8144 28
6516 8141 8145 28
6517 8146 8147 28
6518 8146 8148 28
6519 8146 8149 28
6520 8146 8150 28
6521 8151 8152 28
6522 8151 8153 28
6523 8151 8154 28
6524 8151 8155 28
6525 8156 8157 28
6526 8156 8158 28
6527 8156 8159 28
6528 8156 8160 28
6529 8161 8162 28
6530 8161 8163 28
6531 8161 8164 28
6532 8161 8165 28
6533 8166 8167 28
6534 8166 8168 28
6535 8166 8169 28
6536 8166 8170 28
6537 8171 8172 28
6538 8171 8173 28
6539 8171 8174 28
6540 8171 8175 28
6541 8176 8177 28
6542 8176 8178 28
6543 8176 8179 28
6544 8176 8180 28
6545 8181 8182 28
6546 8181 8183 28
6547 8181 8184 28
6548 8181 8185 28
6549 8186 8187 28
6550 8186 8188 28
6551 8186 8189 28
6552 8186 8190 28
6553 8191 8192 28
6554 8191 8193 28
6555 8191 8194 28
6556 8191 8195 28
6557 8196 8197 28
6558 8196 8198 28
6559 8196 8199 28
6560 8196 8200 28
6561 8201 8202 28
6562 8201 8203 28
6563 8201 8204 28
6564 8201 8205 28
6565 8206 8207 28
6566 8206 8208 28
6567 8206 8209 28
6568 8206 8210 28
6569 8211 8212 28
6570 8211 8213 28
6571 8211 8214 28
6572 8211 8215 28
6573 8216 8217 28
6574 8216 8218 28
6575 8216 8219 28
6576 8216 8220 28
6577 8221 8222 28
6578 8221 8223 28
6579 8221 8224 28
6580 8221 8225 28
6581 8226 8227 28
6582 8226 8228 28
6583 8226 8229 28
6584 8226 8230 28
6585 8231 8232 28
6586 8231 8233 28
6587 8231 8234 28
6588 8231 8235 28
6589 8236 8237 28
6590 8236 8238 28
6591 8236 8239 28
6592 8236 8240 28
6593 8241 8242 28
6594 8241 8243 28
6595 8241 8244 28
6596 8241 8245 28
6597 8246 8247 28
6598 8246 8248 28
6599 8246 8249 28
6600 8246 8250 28
6601 8251 8252 28
6602 8251 8253 28
6603 8251 8254 28
6604 8251 8255 28
6605 8256 8257 28
6606 8256 8258 28
6607 8256 8259 28
6608 8256 8260 28
6609 8261 8262 28
6610 8261 8263 28
6611 8261 8264 28
6612 8261 8265 28
6613 8266 8267 28
6614 8266 8268 28
6615 8266 8269 28
6616 8266 8270 28
6617 8271 8272 28
6618 8271 8273 28
6619 8271 8274 28
6620 8271 8275 28
6621 8276 8277 28
6622 8276 8278 28
6623 8276 8279 28
6624 8276 8280 28
6625 8281 8282 28
6626 8281 8283 28
6627 8281 8284 28
6628 8281 8285 28
6629 8286 8287 28
6630 8286 8288 28
6631 8286 8289 28
6632 8286 8290 28
6633 8291 8292 28
6634 8291 8293 28
6635 8291 8294 28
6636 8291 8295 28
6637 8296 8297 28
6638 8296 8298 28
6639 8296 8299 28
6640 8296 8300 28
6641 8301 8302 28
6642 8301 8303 28
6643 8301 8304 28
6644 8301 8305 28
6645 8306 8307 28
6646 8306 8308 28
6647 8306 8309 28
6648 8306 8310 28
6649 8311 8312 28
6650 8311 8313 28
6651 8311 8314 28
6652 8311 8315 28
6653 8316 8317 28
6654 8316 8318 28
6655 8316 8319 28
6656 8316 8320 28
6657 8321 8322 28
6658 8321 8323 28
6659 8321 8324 28
6660 8321 8325 28
6661 8326 8327 28
6662 8326 8328 28
6663 8326 8329 28
6664 8326 8330 28
6665 8331 8332 28
6666 8331 8333 28
6667 8331 8334 28
6668 8331 8335 28
6669 8336 8337 28
6670 8336 8338 28
6671 8336 8339 28
6672 8336 8340 28
6673 8341 8342 28
6674 8341 8343 28
6675 8341 8344 28
6676 8341 8345 28
6677 8346 8347 28
6678 8346 8348 28
6679 8346 8349 28
6680 8346 8350 28
6681 8351 8352 28
6682 8351 8353 28
6683 8351 8354 28
6684 8351 8355 28
6685 8356 8357 28
6686 8356 8358 28
6687 8356 8359 28
6688 8356 8360 28
6689 8361 8362 28
6690 8361 8363 28
6691 8361 8364 28
6692 8361 8365 28
6693 8366 8367 28
6694 8366 8368 28
6695 8366 8369 28
6696 8366 8370 28
6697 8371 8372 28
6698 8371 8373 28
6699 8371 8374 28
6700 8371 8375 28
6701 8376 8377 28
6702 8376 8378 28
6703 8376 8379 28
6704 8376 8380 28
6705 8381 8382 28
6706 8381 8383 28
6707 8381 8384 28
6708 8381 8385 28
6709 8386 8387 28
6710 8386 8388 28
6711 8386 8389 28
6712 8386 8390 28
6713 8391 8392 28
6714 8391 8393 28
6715 8391 8394 28
6716 8391 8395 28
6717 8396 8397 28
6718 8396 8398 28
6719 8396 8399 28
6720 8396 8400 28
6721 8401 8402 28
6722 8401 8403 28
6723 8401 8404 28
6724 8401 8405 28
6725 8406 8407 28
6726 8406 8408 28
6727 8406 8409 28
6728 8406 8410 28
6729 8411 8412 28
6730 8411 8413 28
6731 8411 8414 28
6732 8411 8415 28
6733 8416 8417 28
6734 8416 8418 28
6735 8416 8419 28
6736 8416 8420 28
6737 8421 8422 28
6738 8421 8423 28
6739 8421 8424 28
6740 8421 8425 28
6741 8426 8427 28
6742 8426 8428 28
6743 8426 8429 28
6744 8426 8430 28
6745 8431 8432 28
6746 8431 8433 28
6747 8431 8434 28
6748 8431 8435 28
6749 8436 8437 28
6750 8436 8438 28
6751 8436 8439 28
6752 8436 8440 28
6753 8441 8442 28
6754 8441 8443 28
6755 8441 8444 28
6756 8441 8445 28
6757 8446 8447 28
6758 8446 8448 28
6759 8446 8449 28
6760 8446 8450 28
6761 8451 8452 28
6762 8451 8453 28
6763 8451 8454 28
6764 8451 8455 28
6765 8456 8457 28
6766 8456 8458 28
6767 8456 8459 28
6768 8456 8460 28
6769 8461 8462 28
6770 8461 8463 28
6771 8461 8464 28
6772 8461 8465 28
6773 8466 8467 28
6774 8466 8468 28
6775 8466 8469 28
6776 8466 8470 28
6777 8471 8472 28
6778 8471 8473 28
6779 8471 8474 28
6780 8471 8475 28
6781 8476 8477 28
6782 8476 8478 28
6783 8476 8479 28
6784 8476 8480 28
6785 8481 8482 28
6786 8481 8483 28
6787 8481 8484 28
6788 8481 8485 28
6789 8486 8487 28
6790 8486 8488 28
6791 8486 8489 28
6792 8486 8490 28
6793 8491 8492 28
6794 8491 8493 28
6795 8491 8494 28
6796 8491 8495 28
6797 8496 8497 28
6798 8496 8498 28
6799 8496 8499 28
6800 8496 8500 28
6801 8501 8502 28
6802 8501 8503 28
6803 8501 8504 28
6804 8501 8505 28
6805 8506 8507 28
6806 8506 8508 28
6807 8506 8509 28
6808 8506 8510 28
6809 8511 8512 28
6810 8511 8513 28
6811 8511 8514 28
6812 8511 8515 28
6813 8516 8517 28
6814 8516 8518 28
6815 8516 8519 28
6816 8516 8520 28
6817 8521 8522 28
6818 8521 8523 28
6819 8521 8524 28
6820 8521 8525 28
6821 8526 8527 28
6822 8526 8528 28
6823 8526 8529 28
6824 8526 8530 28
6825 8531 8532 28
6826 8531 8533 28
6827 8531 8534 28
6828 8531 8535 28
6829 8536 8537 28
6830 8536 8538 28
6831 8536 8539 28
6832 8536 8540 28
6833 8541 8542 28
6834 8541 8543 28
6835 8541 8544 28
6836 8541 8545 28
6837 8546 8547 28
6838 8546 8548 28
6839 8546 8549 28
6840 8546 8550 28
6841 8551 8552 28
6842 8551 8553 28
6843 8551 8554 28
6844 8551 8555 28
6845 8556 8557 28
6846 8556 8558 28
6847 8556 8559 28
6848 8556 8560 28
6849 8561 8562 28
6850 8561 8563 28
6851 8561 8564 28
6852 8561 8565 28
6853 8566 8567 28
6854 8566 8568 28
6855 8566 8569 28
6856 8566 8570 28
6857 8571 8572 28
6858 8571 8573 28
6859 8571 8574 28
6860 8571 8575 28
6861 8576 8577 28
6862 8576 8578 28
6863 8576 8579 28
6864 8576 8580 28
6865 8581 8582 28
6866 8581 8583 28
6867 8581 8584 28
6868 8581 8585 28
6869 8586 8587 28
6870 8586 8588 28
6871 8586 8589 28
6872 8586 8590 28
6873 8591 8592 28
6874 8591 8593 28
6875 8591 8594 28
6876 8591 8595 28
6877 8596 8597 28
6878 8596 8598 28
6879 8596 8599 28
6880 8596 8600 28
6881 8601 8602 28
6882 8601 8603 28
6883 8601 8604 28
6884 8601 8605 28
6885 8606 8607 28
6886 8606 8608 28
6887 8606 8609 28
6888 8606 8610 28
6889 8611 8612 28
6890 8611 8613 28
6891 8611 8614 28
6892 8611 8615 28
6893 8616 8617 28
6894 8616 8618 28
6895 8616 8619 28
6896 8616 8620 28
6897 8621 8622 28
6898 8621 8623 28
6899 8621 8624 28
6900 8621 8625 28
6901 8626 8627 28
6902 8626 8628 28
6903 8626 8629 28
6904 8626 8630 28
6905 8631 8632 28
6906 8631 8633 28
6907 8631 8634 28
6908 8631 8635 28
6909 8636 8637 28
6910 8636 8638 28
6911 8636 8639 28
6912 8636 8640 28
6913 8641 8642 28
6914 8641 8643 28
6915 8641 8644 28
6916 8641 8645 28
6917 8646 8647 28
6918 8646 8648 28
6919 8646 8649 28
6920 8646 8650 28
6921 8651 8652 28
6922 8651 8653 28
6923 8651 8654 28
6924 8651 8655 28
6925 8656 8657 28
6926 8656 8658 28
6927 8656 8659 28
6928 8656 8660 28
6929 8661 8662 28
6930 8661 8663 28
6931 8661 8664 28
6932 8661 8665 28
6933 8666 8667 28
6934 8666 8668 28
6935 8666 8669 28
6936 8666 8670 28
6937 8671 8672 28
6938 8671 8673 28
6939 8671 8674 28
6940 8671 8675 28
6941 8676 8677 28
6942 8676 8678 28
6943 8676 8679 28
6944 8676 8680 28
6945 8681 8682 28
6946 8681 8683 28
6947 8681 8684 28
6948 8681 8685 28
6949 8686 8687 28
6950 8686 8688 28
6951 8686 8689 28
6952 8686 8690 28
6953 8691 8692 28
6954 8691 8693 28
6955 8691 8694 28
6956 8691 8695 28
6957 8696 8697 28
6958 8696 8698 28
6959 8696 8699 28
6960 8696 8700 28
6961 8701 8702 28
6962 8701 8703 28
6963 8701 8704 28
6964 8701 8705 28
6965 8706 8707 28
6966 8706 8708 28
6967 8706 8709 28
6968 8706 8710 28
6969 8711 8712 28
6970 8711 8713 28
6971 8711 8714 28
6972 8711 8715 28
6973 8716 8717 28
6974 8716 8718 28
6975 8716 8719 28
6976 8716 8720 28
6977 8721 8722 28
6978 8721 8723 28
6979 8721 8724 28
6980 8721 8725 28
6981 8726 8727 28
6982 8726 8728 28
6983 8726 8729 28
6984 8726 8730 28
6985 8731 8732 28
6986 8731 8733 28
6987 8731 8734 28
6988 8731 8735 28
6989 8736 8737 28
6990 8736 8738 28
6991 8736 8739 28
6992 8736 8740 28
6993 8741 8742 28
6994 8741 8743 28
6995 8741 8744 28
6996 8741 8745 28
6997 8746 8747 28
6998 8746 8748 28
6999 8746 8749 28
7000 8746 8750 28
7001 8751 8752 28
7002 8751 8753 28
7003 8751 8754 28
7004 8751 8755 28
7005 8756 8757 28
7006 8756 8758 28
7007 8756 8759 28
7008 8756 8760 28
7009 8761 8762 28
7010 8761 8763 28
7011 8761 8764 28
7012 8761 8765 28
7013 8766 8767 28
7014 8766 8768 28
7015 8766 8769 28
7016 8766 8770 28
7017 8771 8772 28
7018 8771 8773 28
7019 8771 8774 28
7020 8771 8775 28
7021 8776 8777 28
7022 8776 8778 28
7023 8776 8779 28
7024 8776 8780 28
7025 8781 8782 28
7026 8781 8783 28
7027 8781 8784 28
7028 8781 8785 28
7029 8786 8787 28
7030 8786 8788 28
7031 8786 8789 28
7032 8786 8790 28
7033 8791 8792 28
7034 8791 8793 28
7035 8791 8794 28
7036 8791 8795 28
7037 8796 8797 28
7038 8796 8798 28
7039 8796 8799 28
7040 8796 8800 28
7041 8801 8802 28
7042 8801 8803 28
7043 8801 8804 28
7044 8801 8805 28
7045 8806 8807 28
7046 8806 8808 28
7047 8806 8809 28
7048 8806 8810 28
7049 8811 8812 28
7050 8811 8813 28
7051 8811 8814 28
7052 8811 8815 28
7053 8816 8817 28
7054 8816 8818 28
7055 8816 8819 28
7056 8816 8820 28
7057 8821 8822 28
7058 8821 8823 28
7059 8821 8824 28
7060 8821 8825 28
7061 8826 8827 28
7062 8826 8828 28
7063 8826 8829 28
7064 8826 8830 28
7065 8831 8832 28
7066 8831 8833 28
7067 8831 8834 28
7068 8831 8835 28
7069 8836 8837 28
7070 8836 8838 28
7071 8836 8839 28
7072 8836 8840 28
7073 8841 8842 28
7074 8841 8843 28
7075 8841 8844 28
7076 8841 8845 28
7077 8846 8847 28
7078 8846 8848 28
7079 8846 8849 28
7080 8846 8850 28
7081 8851 8852 28
7082 8851 8853 28
7083 8851 8854 28
7084 8851 8855 28
7085 8856 8857 28
7086 8856 8858 28
7087 8856 8859 28
7088 8856 8860 28
7089 8861 8862 28
7090 8861 8863 28
7091 8861 8864 28
7092 8861 8865 28
7093 8866 8867 28
7094 8866 8868 28
7095 8866 8869 28
7096 8866 8870 28
7097 8871 8872 28
7098 8871 8873 28
7099 8871 8874 28
7100 8871 8875 28
7101 8876 8877 28
7102 8876 8878 28
7103 8876 8879 28
7104 8876 8880 28
7105 8881 8882 28
7106 8881 8883 28
7107 8881 8884 28
7108 8881 8885 28
7109 8886 8887 28
7110 8886 8888 28
7111 8886 8889 28
7112 8886 8890 28
7113 8891 8892 28
7114 8891 8893 28
7115 8891 8894 28
7116 8891 8895 28
7117 8896 8897 28
7118 8896 8898 28
7119 8896 8899 28
7120 8896 8900 28
7121 8901 8902 28
7122 8901 8903 28
7123 8901 8904 28
7124 8901 8905 28
7125 8906 8907 28
7126 8906 8908 28
7127 8906 8909 28
7128 8906 8910 28
7129 8911 8912 28
7130 8911 8913 28
7131 8911 8914 28
7132 8911 8915 28
7133 8916 8917 28
7134 8916 8918 28
7135 8916 8919 28
7136 8916 8920 28
7137 8921 8922 28
7138 8921 8923 28
7139 8921 8924 28
7140 8921 8925 28
7141 8926 8927 28
7142 8926 8928 28
7143 8926 8929 28
7144 8926 8930 28
7145 8931 8932 28
7146 8931 8933 28
7147 8931 8934 28
7148 8931 8935 28
7149 8936 8937 28
7150 8936 8938 28
7151 8936 8939 28
7152 8936 8940 28
7153 8941 8942 28
7154 8941 8943 28
7155 8941 8944 28
7156 8941 8945 28
7157 8946 8947 28
7158 8946 8948 28
7159 8946 8949 28
7160 8946 8950 28
7161 8951 8952 28
7162 8951 8953 28
7163 8951 8954 28
7164 8951 8955 28
7165 8956 8957 28
7166 8956 8958 28
7167 8956 8959 28
7168 8956 8960 28
7169 8961 8962 28
7170 8961 8963 28
7171 8961 8964 28
7172 8961 8965 28
7173 8966 8967 28
7174 8966 8968 28
7175 8966 8969 28
7176 8966 8970 28
7177 8971 8972 28
7178 8971 8973 28
7179 8971 8974 28
7180 8971 8975 28
7181 8976 8977 28
7182 8976 8978 28
7183 8976 8979 28
7184 8976 8980 28
7185 8981 8982 28
7186 8981 8983 28
7187 8981 8984 28
7188 8981 8985 28
7189 8986 8987 28
7190 8986 8988 28
7191 8986 8989 28
7192 8986 8990 28
7193 8991 8992 28
7194 8991 8993 28
7195 8991 8994 28
7196 8991 8995 28
7197 8996 8997 28
7198 8996 8998 28
7199 8996 8999 28
7200 8996 9000 28
7201 9001 9002 28
7202 9001 9003 28
7203 9001 9004 28
7204 9001 9005 28
7205 9006 9007 28
7206 9006 9008 28
7207 9006 9009 28
7208 9006 9010 28
7209 9011 9012 28
7210 9011 9013 28
7211 9011 9014 28
7212 9011 9015 28
7213 9016 9017 28
7214 9016 9018 28
7215 9016 9019 28
7216 9016 9020 28
7217 9021 9022 28
7218 9021 9023 28
7219 9021 9024 28
7220 9021 9025 28
7221 9026 9027 28
7222 9026 9028 28
7223 9026 9029 28
7224 9026 9030 28
7225 9031 9032 28
7226 9031 9033 28
7227 9031 9034 28
7228 9031 9035 28
7229 9036 9037 28
7230 9036 9038 28
7231 9036 9039 28
7232 9036 9040 28
7233 9041 9042 28
7234 9041 9043 28
7235 9041 9044 28
7236 9041 9045 28
7237 9046 9047 28
7238 9046 9048 28
7239 9046 9049 28
7240 9046 9050 28
7241 9051 9052 28
7242 9051 9053 28
7243 9051 9054 28
7244 9051 9055 28
7245 9056 9057 28
7246 9056 9058 28
7247 9056 9059 28
7248 9056 9060 28
7249 9061 9062 28
7250 9061 9063 28
7251 9061 9064 28
7252 9061 9065 28
7253 9066 9067 28
7254 9066 9068 28
7255 9066 9069 28
7256 9066 9070 28
7257 9071 9072 28
7258 9071 9073 28
7259 9071 9074 28
7260 9071 9075 28
7261 9076 9077 28
7262 9076 9078 28
7263 9076 9079 28
7264 9076 9080 28
7265 9081 9082 28
7266 9081 9083 28
7267 9081 9084 28
7268 9081 9085 28
7269 9086 9087 28
7270 9086 9088 28
7271 9086 9089 28
7272 9086 9090 28
7273 9091 9092 28
7274 9091 9093 28
7275 9091 9094 28
7276 9091 9095 28
7277 9096 9097 28
7278 9096 9098 28
7279 9096 9099 28
7280 9096 9100 28
7281 9101 9102 28
7282 9101 9103 28
7283 9101 9104 28
7284 9101 9105 28
7285 9106 9107 28
7286 9106 9108 28
7287 9106 9109 28
7288 9106 9110 28
7289 9111 9112 28
7290 9111 9113 28
7291 9111 9114 28
7292 9111 9115 28
7293 9116 9117 28
7294 9116 9118 28
7295 9116 9119 28
7296 9116 9120 28
7297 9121 9122 28
7298 9121 9123 28
7299 9121 9124 28
7300 9121 9125 28
7301 9126 9127 28
7302 9126 9128 28
7303 9126 9129 28
7304 9126 9130 28
7305 9131 9132 28
7306 9131 9133 28
7307 9131 9134 28
7308 9131 9135 28
7309 9136 9137 28
7310 9136 9138 28
7311 9136 9139 28
7312 9136 9140 28
7313 9141 9142 28
7314 9141 9143 28
7315 9141 9144 28
7316 9141 9145 28
7317 9146 9147 28
7318 9146 9148 28
7319 9146 9149 28
7320 9146 9150 28
7321 9151 9152 28
7322 9151 9153 28
7323 9151 9154 28
7324 9151 9155 28
7325 9156 9157 28
7326 9156 9158 28
7327 9156 9159 28
7328 9156 9160 28
7329 9161 9162 28
7330 9161 9163 28
7331 9161 9164 28
7332 9161 9165 28
7333 9166 9167 28
7334 9166 9168 28
7335 9166 9169 28
7336 9166 9170 28
7337 9171 9172 28
7338 9171 9173 28
7339 9171 9174 28
7340 9171 9175 28
7341 9176 9177 28
7342 9176 9178 28
7343 9176 9179 28
7344 9176 9180 28
7345 9181 9182 28
7346 9181 9183 28
7347 9181 9184 28
7348 9181 9185 28
7349 9186 9187 28
7350 9186 9188 28
7351 9186 9189 28
7352 9186 9190 28
7353 9191 9192 28
7354 9191 9193 28
7355 9191 9194 28
7356 9191 9195 28
7357 9196 9197 28
7358 9196 9198 28
7359 9196 9199 28
7360 9196 9200 28
7361 9201 9202 28
7362 9201 9203 28
7363 9201 9204 28
7364 9201 9205 28
7365 9206 9207 28
7366 9206 9208 28
7367 9206 9209 28
7368 9206 9210 28
7369 9211 9212 28
7370 9211 9213 28
7371 9211 9214 28
7372 9211 9215 28
7373 9216 9217 28
7374 9216 9218 28
7375 9216 9219 28
7376 9216 9220 28
7377 9221 9222 28
7378 9221 9223 28
7379 9221 9224 28
7380 9221 9225 28
7381 9226 9227 28
7382 9226 9228 28
7383 9226 9229 28
7384 9226 9230 28
7385 9231 9232 28
7386 9231 9233 28
7387 9231 9234 28
7388 9231 9235 28
7389 9236 9237 28
7390 9236 9238 28
7391 9236 9239 28
7392 9236 9240 28
7393 9241 9242 28
7394 9241 9243 28
7395 9241 9244 28
7396 9241 9245 28
7397 9246 9247 28
7398 9246 9248 28
7399 9246 9249 28
7400 9246 9250 28
7401 9251 9252 28
7402 9251 9253 28
7403 9251 9254 28
7404 9251 9255 28
7405 9256 9257 28
7406 9256 9258 28
7407 9256 9259 28
7408 9256 9260 28
7409 9261 9262 28
7410 9261 9263 28
7411 9261 9264 28
7412 9261 9265 28
7413 9266 9267 28
7414 9266 9268 28
7415 9266 9269 28
7416 9266 9270 28
7417 9271 9272 28
7418 9271 9273 28
7419 9271 9274 28
7420 9271 9275 28
7421 9276 9277 28
7422 9276 9278 28
7423 9276 9279 28
7424 9276 9280 28
7425 9281 9282 28
7426 9281 9283 28
7427 9281 9284 28
7428 9281 9285 28
7429 9286 9287 28
7430 9286 9288 28
7431 9286 9289 28
7432 9286 9290 28
7433 9291 9292 28
7434 9291 9293 28
7435 9291 9294 28
7436 9291 9295 28
7437 9296 9297 28
7438 9296 9298 28
7439 9296 9299 28
7440 9296 9300 28
7441 9301 9302 28
7442 9301 9303 28
7443 9301 9304 28
7444 9301 9305 28
7445 9306 9307 28
7446 9306 9308 28
7447 9306 9309 28
7448 9306 9310 28
7449 9311 9312 28
7450 9311 9313 28
7451 9311 9314 28
7452 9311 9315 28
7453 9316 9317 28
7454 9316 9318 28
7455 9316 9319 28
7456 9316 9320 28
7457 9321 9322 28
7458 9321 9323 28
7459 9321 9324 28
7460 9321 9325 28
7461 9326 9327 28
7462 9326 9328 28
7463 9326 9329 28
7464 9326 9330 28
7465 9331 9332 28
7466 9331 9333 28
7467 9331 9334 28
7468 9331 9335 28
7469 9336 9337 28
7470 9336 9338 28
7471 9336 9339 28
7472 9336 9340 28
7473 9341 9342 28
7474 9341 9343 28
7475 9341 9344 28
7476 9341 9345 28
7477 9346 9347 28
7478 9346 9348 28
7479 9346 9349 28
7480 9346 9350 28
7481 9351 9352 28
7482 9351 9353 28
7483 9351 9354 28
7484 9351 9355 28
7485 9356 9357 28
7486 9356 9358 28
7487 9356 9359 28
7488 9356 9360 28
7489 9361 9362 28
7490 9361 9363 28
7491 9361 9364 28
7492 9361 9365 28
7493 9366 9367 28
7494 9366 9368 28
7495 9366 9369 28
7496 9366 9370 28
7497 9371 9372 28
7498 9371 9373 28
7499 9371 9374 28
7500 9371 9375 28
7501 9376 9377 28
7502 9376 9378 28
7503 9376 9379 28
7504 9376 9380 28
7505 9381 9382 28
7506 9381 9383 28
7507 9381 9384 28
7508 9381 9385 28
7509 9386 9387 28
7510 9386 9388 28
7511 9386 9389 28
7512 9386 9390 28
7513 9391 9392 28
7514 9391 9393 28
7515 9391 9394 28
7516 9391 9395 28
7517 9396 9397 28
7518 9396 9398 28
7519 9396 9399 28
7520 9396 9400 28
7521 9401 9402 28
7522 9401 9403 28
7523 9401 9404 28
7524 9401 9405 28
7525 9406 9407 28
7526 9406 9408 28
7527 9406 9409 28
7528 9406 9410 28
7529 9411 9412 28
7530 9411 9413 28
7531 9411 9414 28
7532 9411 9415 28
7533 9416 9417 28
7534 9416 9418 28
7535 9416 9419 28
7536 9416 9420 28
7537 9421 9422 28
7538 9421 9423 28
7539 9421 9424 28
7540 9421 9425 28
7541 9426 9427 28
7542 9426 9428 28
7543 9426 9429 28
7544 9426 9430 28
7545 9431 9432 28
7546 9431 9433 28
7547 9431 9434 28
7548 9431 9435 28
7549 9436 9437 28
7550 9436 9438 28
7551 9436 9439 28
7552 9436 9440 28
7553 9441 9442 28
7554 9441 9443 28
7555 9441 9444 28
7556 9441 9445 28
7557 9446 9447 28
7558 9446 9448 28
7559 9446 9449 28
7560 9446 9450 28
7561 9451 9452 28
7562 9451 9453 28
7563 9451 9454 28
7564 9451 9455 28
7565 9456 9457 28
7566 9456 9458 28
7567 9456 9459 28
7568 9456 9460 28
7569 9461 9462 28
7570 9461 9463 28
7571 9461 9464 28
7572 9461 9465 28
7573 9466 9467 28
7574 9466 9468 28
7575 9466 9469 28
7576 9466 9470 28
7577 9471 9472 28
7578 9471 9473 28
7579 9471 9474 28
7580 9471 9475 28
7581 9476 9477 28
7582 9476 9478 28
7583 9476 9479 28
7584 9476 9480 28
7585 9481 9482 28
7586 9481 9483 28
7587 9481 9484 28
7588 9481 9485 28
7589 9486 9487 28
7590 9486 9488 28
7591 9486 9489 28
7592 9486 9490 28
7593 9491 9492 28
7594 9491 9493 28
7595 9491 9494 28
7596 9491 9495 28
7597 9496 9497 28
7598 9496 9498 28
7599 9496 9499 28
7600 9496 9500 28
7601 9501 9502 28
7602 9501 9503 28
7603 9501 9504 28
7604 9501 9505 28
7605 9506 9507 28
7606 9506 9508 28
7607 9506 9509 28
7608 9506 9510 28
7609 9511 9512 28
7610 9511 9513 28
7611 9511 9514 28
7612 9511 9515 28
7613 9516 9517 28
7614 9516 9518 28
7615 9516 9519 28
7616 9516 9520 28
7617 9521 9522 28
7618 9521 9523 28
7619 9521 9524 28
7620 9521 9525 28
7621 9526 9527 28
7622 9526 9528 28
7623 9526 9529 28
7624 9526 9530 28
7625 9531 9532 28
7626 9531 9533 28
7627 9531 9534 28
7628 9531 9535 28
7629 9536 9537 28
7630 9536 9538 28
7631 9536 9539 28
7632 9536 9540 28
7633 9541 9542 28
7634 9541 9543 28
7635 9541 9544 28
7636 9541 9545 28
7637 9546 9547 28
7638 9546 9548 28
7639 9546 9549 28
7640 9546 9550 28
7641 9551 9552 28
7642 9551 9553 28
7643 9551 9554 28
7644 9551 9555 28
7645 9556 9557 28
7646 9556 9558 28
7647 9556 9559 28
7648 9556 9560 28
7649 9561 9562 28
7650 9561 9563 28
7651 9561 9564 28
7652 9561 9565 28
7653 9566 9567 28
7654 9566 9568 28
7655 9566 9569 28
7656 9566 9570 28
7657 9571 9572 28
7658 9571 9573 28
7659 9571 9574 28
7660 9571 9575 28
7661 9576 9577 28
7662 9576 9578 28
7663 9576 9579 28
7664 9576 9580 28
7665 9581 9582 28
7666 9581 9583 28
7667 9581 9584 28
7668 9581 9585 28
7669 9586 9587 28
7670 9586 9588 28
7671 9586 9589 28
7672 9586 9590 28
7673 9591 9592 28
7674 9591 9593 28
7675 9591 9594 28
7676 9591 9595 28
7677 9596 9597 28
7678 9596 9598 28
7679 9596 9599 28
7680 9596 9600 28
7681 9601 9602 28
7682 9601 9603 28
7683 9601 9604 28
7684 9601 9605 28
7685 9606 9607 28
7686 9606 9608 28
7687 9606 9609 28
7688 9606 9610 28
7689 9611 9612 28
7690 9611 9613 28
7691 9611 9614 28
7692 9611 9615 28
7693 9616 9617 28
7694 9616 9618 28
7695 9616 9619 28
7696 9616 9620 28
7697 9621 9622 28
7698 9621 9623 28
7699 9621 9624 28
7700 9621 9625 28
7701 9626 9627 28
7702 9626 9628 28
7703 9626 9629 28
7704 9626 9630 28
7705 9631 9632 28
7706 9631 9633 28
7707 9631 9634 28
7708 9631 9635 28
7709 9636 9637 28
7710 9636 9638 28
7711 9636 9639 28
7712 9636 9640 28
7713 9641 9642 28
7714 9641 9643 28
7715 9641 9644 28
7716 9641 9645 28
7717 9646 9647 28
7718 9646 9648 28
7719 9646 9649 28
7720 9646 9650 28
7721 9651 9652 28
7722 9651 9653 28
7723 9651 9654 28
7724 9651 9655 28
7725 9656 9657 28
7726 9656 9658 28
7727 9656 9659 28
7728 9656 9660 28
7729 9661 9662 28
7730 9661 9663 28
7731 9661 9664 28
7732 9661 9665 28
7733 9666 9667 28
7734 9666 9668 28
7735 9666 9669 28
7736 9666 9670 28
7737 9671 9672 28
7738 9671 9673 28
7739 9671 9674 28
7740 9671 9675 28
7741 9676 9677 28
7742 9676 9678 28
7743 9676 9679 28
7744 9676 9680 28
7745 9681 9682 28
7746 9681 9683 28
7747 9681 9684 28
7748 9681 9685 28
7749 9686 9687 28
7750 9686 9688 28
7751 9686 9689 28
7752 9686 9690 28
7753 9691 9692 28
7754 9691 9693 28
7755 9691 9694 28
7756 9691 9695 28
7757 9696 9697 28
7758 9696 9698 28
7759 9696 9699 28
7760 9696 9700 28
7761 9701 9702 28
7762 9701 9703 28
7763 9701 9704 28
7764 9701 9705 28
7765 9706 9707 28
7766 9706 9708 28
7767 9706 9709 28
7768 9706 9710 28
7769 9711 9712 28
7770 9711 9713 28
7771 9711 9714 28
7772 9711 9715 28
7773 9716 9717 28
7774 9716 9718 28
7775 9716 9719 28
7776 9716 9720 28
7777 9721 9722 28
7778 9721 9723 28
7779 9721 9724 28
7780 9721 9725 28
7781 9726 9727 28
7782 9726 9728 28
7783 9726 9729 28
7784 9726 9730 28
7785 9731 9732 28
7786 9731 9733 28
7787 9731 9734 28
7788 9731 9735 28
7789 9736 9737 28
7790 9736 9738 28
7791 9736 9739 28
7792 9736 9740 28
7793 9741 9742 28
7794 9741 9743 28
7795 9741 9744 28
7796 9741 9745 28
7797 9746 9747 28
7798 9746 9748 28
7799 9746 9749 28
7800 9746 9750 28
7801 9751 9752 28
7802 9751 9753 28
7803 9751 9754 28
7804 9751 9755 28
7805 9756 9757 28
7806 9756 9758 28
7807 9756 9759 28
7808 9756 9760 28
7809 9761 9762 28
7810 9761 9763 28
7811 9761 9764 28
7812 9761 9765 28
7813 9766 9767 28
7814 9766 9768 28
7815 9766 9769 28
7816 9766 9770 28
7817 9771 9772 28
7818 9771 9773 28
7819 9771 9774 28
7820 9771 9775 28
7821 9776 9777 28
7822 9776 9778 28
7823 9776 9779 28
7824 9776 9780 28
7825 9781 9782 28
7826 9781 9783 28
7827 9781 9784 28
7828 9781 9785 28
7829 9786 9787 28
7830 9786 9788 28
7831 9786 9789 28
7832 9786 9790 28
7833 9791 9792 28
7834 9791 9793 28
7835 9791 9794 28
7836 9791 9795 28
7837 9796 9797 28
7838 9796 9798 28
7839 9796 9799 28
7840 9796 9800 28
7841 9801 9802 28
7842 9801 9803 28
7843 9801 9804 28
7844 9801 9805 28
7845 9806 9807 28
7846 9806 9808 28
7847 9806 9809 28
7848 9806 9810 28
7849 9811 9812 28
7850 9811 9813 28
7851 9811 9814 28
7852 9811 9815 28
7853 9816 9817 28
7854 9816 9818 28
7855 9816 9819 28
7856 9816 9820 28
7857 9821 9822 28
7858 9821 9823 28
7859 9821 9824 28
7860 9821 9825 28
7861 9826 9827 28
7862 9826 9828 28
7863 9826 9829 28
7864 9826 9830 28
7865 9831 9832 28
7866 9831 9833 28
7867 9831 9834 28
7868 9831 9835 28
7869 9836 9837 28
7870 9836 9838 28
7871 9836 9839 28
7872 9836 9840 28
7873 9841 9842 28
7874 9841 9843 28
7875 9841 9844 28
7876 9841 9845 28
7877 9846 9847 28
7878 9846 9848 28
7879 9846 9849 28
7880 9846 9850 28
7881 9851 9852 28
7882 9851 9853 28
7883 9851 9854 28
7884 9851 9855 28
7885 9856 9857 28
7886 9856 9858 28
7887 9856 9859 28
7888 9856 9860 28
7889 9861 9862 28
7890 9861 9863 28
7891 9861 9864 28
7892 9861 9865 28
7893 9866 9867 28
7894 9866 9868 28
7895 9866 9869 28
7896 9866 9870 28
7897 9871 9872 28
7898 9871 9873 28
7899 9871 9874 28
7900 9871 9875 28
7901 9876 9877 28
7902 9876 9878 28
7903 9876 9879 28
7904 9876 9880 28
7905 9881 9882 28
7906 9881 9883 28
7907 9881 9884 28
7908 9881 9885 28
7909 9886 9887 28
7910 9886 9888 28
7911 9886 9889 28
7912 9886 9890 28
7913 9891 9892 28
7914 9891 9893 28
7915 9891 9894 28
7916 9891 9895 28
7917 9896 9897 28
7918 9896 9898 28
7919 9896 9899 28
7920 9896 9900 28
7921 9901 9902 28
7922 9901 9903 28
7923 9901 9904 28
7924 9901 9905 28
7925 9906 9907 28
7926 9906 9908 28
7927 9906 9909 28
7928 9906 9910 28
7929 9911 9912 28
7930 9911 9913 28
7931 9911 9914 28
7932 9911 9915 28
7933 9916 9917 28
7934 9916 9918 28
7935 9916 9919 28
7936 9916 9920 28
7937 9921 9922 28
7938 9921 9923 28
7939 9921 9924 28
7940 9921 9925 28
7941 9926 9927 28
7942 9926 9928 28
7943 9926 9929 28
7944 9926 9930 28
7945 9931 9932 28
7946 9931 9933 28
7947 9931 9934 28
7948 9931 9935 28
7949 9936 9937 28
7950 9936 9938 28
7951 9936 9939 28
7952 9936 9940 28
7953 9941 9942 28
7954 9941 9943 28
7955 9941 9944 28
7956 9941 9945 28
7957 9946 9947 28
7958 9946 9948 28
7959 9946 9949 28
7960 9946 9950 28
7961 9951 9952 28
7962 9951 9953 28
7963 9951 9954 28
7964 9951 9955 28
7965 9956 9957 28
7966 9956 9958 28
7967 9956 9959 28
7968 9956 9960 28
7969 9961 9962 28
7970 9961 9963 28
7971 9961 9964 28
7972 9961 9965 28
7973 9966 9967 28
7974 9966 9968 28
7975 9966 9969 28
7976 9966 9970 28
7977 9971 9972 28
7978 9971 9973 28
7979 9971 9974 28
7980 9971 9975 28
7981 9976 9977 28
7982 9976 9978 28
7983 9976 9979 28
7984 9976 9980 28
7985 9981 9982 28
7986 9981 9983 28
7987 9981 9984 28
7988 9981 9985 28
7989 9986 9987 28
7990 9986 9988 28
7991 9986 9989 28
7992 9986 9990 28
7993 9991 9992 28
7994 9991 9993 28
7995 9991 9994 28
7996 9991 9995 28
7997 9996 9997 28
7998 9996 9998 28
7999 9996 9999 28
8000 9996 10000 28
8001 10001 10002 28
8002 10001 10003 28
8003 10001 10004 28
8004 10001 10005 28
8005 10006 10007 28
8006 10006 10008 28
8007 10006 10009 28
8008 10006 10010 28
8009 10011 10012 28
8010 10011 10013 28
8011 10011 10014 28
8012 10011 10015 28
8013 10016 10017 28
8014 10016 10018 28
8015 10016 10019 28
8016 10016 10020 28
8017 10021 10022 28
8018 10021 10023 28
8019 10021 10024 28
8020 10021 10025 28
8021 10026 10027 28
8022 10026 10028 28
8023 10026 10029 28
8024 10026 10030 28
8025 10031 10032 28
8026 10031 10033 28
8027 10031 10034 28
8028 10031 10035 28
8029 10036 10037 28
8030 10036 10038 28
8031 10036 10039 28
8032 10036 10040 28
8033 10041 10042 28
8034 10041 10043 28
8035 10041 10044 28
8036 10041 10045 28
8037 10046 10047 28
8038 10046 10048 28
8039 10046 10049 28
8040 10046 10050 28
8041 10051 10052 28
8042 10051 10053 28
8043 10051 10054 28
8044 10051 10055 28
8045 10056 10057 28
8046 10056 10058 28
8047 10056 10059 28
8048 10056 10060 28
8049 10061 10062 28
8050 10061 10063 28
8051 10061 10064 28
8052 10061 10065 28
8053 10066 10067 28
8054 10066 10068 28
8055 10066 10069 28
8056 10066 10070 28
8057 10071 10072 28
8058 10071 10073 28
8059 10071 10074 28
8060 10071 10075 28
8061 10076 10077 28
8062 10076 10078 28
8063 10076 10079 28
8064 10076 10080 28
8065 10081 10082 28
8066 10081 10083 28
8067 10081 10084 28
8068 10081 10085 28
8069 10086 10087 28
8070 10086 10088 28
8071 10086 10089 28
8072 10086 10090 28
8073 10091 10092 28
8074 10091 10093 28
8075 10091 10094 28
8076 10091 10095 28
8077 10096 10097 28
8078 10096 10098 28
8079 10096 10099 28
8080 10096 10100 28
8081 10101 10102 28
8082 10101 10103 28
8083 10101 10104 28
8084 10101 10105 28
8085 10106 10107 28
8086 10106 10108 28
8087 10106 10109 28
8088 10106 10110 28
8089 10111 10112 28
8090 10111 10113 28
8091 10111 10114 28
8092 10111 10115 28
8093 10116 10117 28
8094 10116 10118 28
8095 10116 10119 28
8096 10116 10120 28
8097 10121 10122 28
8098 10121 10123 28
8099 10121 10124 28
8100 10121 10125 28
8101 10126 10127 28
8102 10126 10128 28
8103 10126 10129 28
8104 10126 10130 28
8105 10131 10132 28
8106 10131 10133 28
8107 10131 10134 28
8108 10131 10135 28
8109 10136 10137 28
8110 10136 10138 28
8111 10136 10139 28
8112 10136 10140 28
8113 10141 10142 28
8114 10141 10143 28
8115 10141 10144 28
8116 10141 10145 28
8117 10146 10147 28
8118 10146 10148 28
8119 10146 10149 28
8120 10146 10150 28
8121 10151 10152 28
8122 10151 10153 28
8123 10151 10154 28
8124 10151 10155 28
8125 10156 10157 28
8126 10156 10158 28
8127 10156 10159 28
8128 10156 10160 28
8129 10161 10162 28
8130 10161 10163 28
8131 10161 10164 28
8132 10161 10165 28
8133 10166 10167 28
8134 10166 10168 28
8135 10166 10169 28
8136 10166 10170 28
8137 10171 10172 28
8138 10171 10173 28
8139 10171 10174 28
8140 10171 10175 28
8141 10176 10177 28
8142 10176 10178 28
8143 10176 10179 28
8144 10176 10180 28
8145 10181 10182 28
8146 10181 10183 28
8147 10181 10184 28
8148 10181 10185 28
8149 10186 10187 28
8150 10186 10188 28
8151 10186 10189 28
8152 10186 10190 28
8153 10191 10192 28
8154 10191 10193 28
8155 10191 10194 28
8156 10191 10195 28
8157 10196 10197 28
8158 10196 10198 28
8159 10196 10199 28
8160 10196 10200 28
8161 10201 10202 28
8162 10201 10203 28
8163 10201 10204 28
8164 10201 10205 28
8165 10206 10207 28
8166 10206 10208 28
8167 10206 10209 28
8168 10206 10210 28
8169 10211 10212 28
8170 10211 10213 28
8171 10211 10214 28
8172 10211 10215 28
8173 10216 10217 28
8174 10216 10218 28
8175 10216 10219 28
8176 10216 10220 28
8177 10221 10222 28
8178 10221 10223 28
8179 10221 10224 28
8180 10221 10225 28
8181 10226 10227 28
8182 10226 10228 28
8183 10226 10229 28
8184 10226 10230 28
8185 10231 10232 28
8186 10231 10233 28
8187 10231 10234 28
8188 10231 10235 28
8189 10236 10237 28
8190 10236 10238 28
8191 10236 10239 28
8192 10236 10240 28
8193 10241 10242 28
8194 10241 10243 28
8195 10241 10244 28
8196 10241 10245 28
8197 10246 10247 28
8198 10246 10248 28
8199 10246 10249 28
8200 10246 10250 28
8201 10251 10252 28
8202 10251 10253 28
8203 10251 10254 28
8204 10251 10255 28
8205 10256 10257 28
8206 10256 10258 28
8207 10256 10259 28
8208 10256 10260 28
8209 10261 10262 28
8210 10261 10263 28
8211 10261 10264 28
8212 10261 10265 28
8213 10266 10267 28
8214 10266 10268 28
8215 10266 10269 28
8216 10266 10270 28
8217 10271 10272 28
8218 10271 10273 28
8219 10271 10274 28
8220 10271 10275 28
8221 10276 10277 28
8222 10276 10278 28
8223 10276 10279 28
8224 10276 10280 28
8225 10281 10282 28
8226 10281 10283 28
8227 10281 10284 28
8228 10281 10285 28
8229 10286 10287 28
8230 10286 10288 28
8231 10286 10289 28
8232 10286 10290 28
8233 10291 10292 28
8234 10291 10293 28
8235 10291 10294 28
8236 10291 10295 28
8237 10296 10297 28
8238 10296 10298 28
8239 10296 10299 28
8240 10296 10300 28
8241 10301 10302 28
8242 10301 10303 28
8243 10301 10304 28
8244 10301 10305 28
8245 10306 10307 28
8246 10306 10308 28
8247 10306 10309 28
8248 10306 10310 28
8249 10311 10312 28
8250 10311 10313 28
8251 10311 10314 28
8252 10311 10315 28
8253 10316 10317 28
8254 10316 10318 28
8255 10316 10319 28
8256 10316 10320 28
8257 10321 10322 28
8258 10321 10323 28
8259 10321 10324 28
8260 10321 10325 28
8261 10326 10327 28
8262 10326 10328 28
8263 10326 10329 28
8264 10326 10330 28
8265 10331 10332 28
8266 10331 10333 28
8267 10331 10334 28
8268 10331 10335 28
8269 10336 10337 28
8270 10336 10338 28
8271 10336 10339 28
8272 10336 10340 28
8273 10341 10342 28
8274 10341 10343 28
8275 10341 10344 28
8276 10341 10345 28
8277 10346 10347 28
8278 10346 10348 28
8279 10346 10349 28
8280 10346 10350 28
8281 10351 10352 28
8282 10351 10353 28
8283 10351 10354 28
8284 10351 10355 28
8285 10356 10357 28
8286 10356 10358 28
8287 10356 10359 28
8288 10356 10360 28
8289 10361 10362 28
8290 10361 10363 28
8291 10361 10364 28
8292 10361 10365 28
8293 10366 10367 28
8294 10366 10368 28
8295 10366 10369 28
8296 10366 10370 28
8297 10371 10372 28
8298 10371 10373 28
8299 10371 10374 28
8300 10371 10375 28
8301 10376 10377 28
8302 10376 10378 28
8303 10376 10379 28
8304 10376 10380 28
8305 10381 10382 28
8306 10381 10383 28
8307 10381 10384 28
8308 10381 10385 28
8309 10386 10387 28
8310 10386 10388 28
8311 10386 10389 28
8312 10386 10390 28
8313 10391 10392 28
8314 10391 10393 28
8315 10391 10394 28
8316 10391 10395 28
8317 10396 10397 28
8318 10396 10398 28
8319 10396 10399 28
8320 10396 10400 28
8321 10401 10402 28
8322 10401 10403 28
8323 10401 10404 28
8324 10401 10405 28
8325 10406 10407 28
8326 10406 10408 28
8327 10406 10409 28
8328 10406 10410 28
8329 10411 10412 28
8330 10411 10413 28
8331 10411 10414 28
8332 10411 10415 28
8333 10416 10417 28
8334 10416 10418 28
8335 10416 10419 28
8336 10416 10420 28
8337 10421 10422 28
8338 10421 10423 28
8339 10421 10424 28
8340 10421 10425 28
8341 10426 10427 28
8342 10426 10428 28
8343 10426 10429 28
8344 10426 10430 28
8345 10431 10432 28
8346 10431 10433 28
8347 10431 10434 28
8348 10431 10435 28
8349 10436 10437 28
8350 10436 10438 28
8351 10436 10439 28
8352 10436 10440 28
8353 10441 10442 28
8354 10441 10443 28
8355 10441 10444 28
8356 10441 10445 28
8357 10446 10447 28
8358 10446 10448 28
8359 10446 10449 28
8360 10446 10450 28
8361 10451 10452 28
8362 10451 10453 28
8363 10451 10454 28
8364 10451 10455 28
8365 10456 10457 28
8366 10456 10458 28
8367 10456 10459 28
8368 10456 10460 28
8369 10461 10462 28
8370 10461 10463 28
8371 10461 10464 28
8372 10461 10465 28
8373 10466 10467 28
8374 10466 10468 28
8375 10466 10469 28
8376 10466 10470 28
8377 10471 10472 28
8378 10471 10473 28
8379 10471 10474 28
8380 10471 10475 28
8381 10476 10477 28
8382 10476 10478 28
8383 10476 10479 28
8384 10476 10480 28
8385 10481 10482 28
8386 10481 10483 28
8387 10481 10484 28
8388 10481 10485 28
8389 10486 10487 28
8390 10486 10488 28
8391 10486 10489 28
8392 10486 10490 28
8393 10491 10492 28
8394 10491 10493 28
8395 10491 10494 28
8396 10491 10495 28
8397 10496 10497 28
8398 10496 10498 28
8399 10496 10499 28
8400 10496 10500 28
8401 10501 10502 28
8402 10501 10503 28
8403 10501 10504 28
8404 10501 10505 28
8405 10506 10507 28
8406 10506 10508 28
8407 10506 10509 28
8408 10506 10510 28
8409 10511 10512 28
8410 10511 10513 28
8411 10511 10514 28
8412 10511 10515 28
8413 10516 10517 28
8414 10516 10518 28
8415 10516 10519 28
8416 10516 10520 28
8417 10521 10522 28
8418 10521 10523 28
8419 10521 10524 28
8420 10521 10525 28
8421 10526 10527 28
8422 10526 10528 28
8423 10526 10529 28
8424 10526 10530 28
8425 10531 10532 28
8426 10531 10533 28
8427 10531 10534 28
8428 10531 10535 28
8429 10536 10537 28
8430 10536 10538 28
8431 10536 10539 28
8432 10536 10540 28
8433 10541 10542 28
8434 10541 10543 28
8435 10541 10544 28
8436 10541 10545 28
8437 10546 10547 28
8438 10546 10548 28
8439 10546 10549 28
8440 10546 10550 28
8441 10551 10552 28
8442 10551 10553 28
8443 10551 10554 28
8444 10551 10555 28
8445 10556 10557 28
8446 10556 10558 28
8447 10556 10559 28
8448 10556 10560 28
8449 10561 10562 28
8450 10561 10563 28
8451 10561 10564 28
8452 10561 10565 28
8453 10566 10567 28
8454 10566 10568 28
8455 10566 10569 28
8456 10566 10570 28
8457 10571 10572 28
8458 10571 10573 28
8459 10571 10574 28
8460 10571 10575 28
8461 10576 10577 28
8462 10576 10578 28
8463 10576 10579 28
8464 10576 10580 28
8465 10581 10582 28
8466 10581 10583 28
8467 10581 10584 28
8468 10581 10585 28
8469 10586 10587 28
8470 10586 10588 28
8471 10586 10589 28
8472 10586 10590 28
8473 10591 10592 28
8474 10591 10593 28
8475 10591 10594 28
8476 10591 10595 28
8477 10596 10597 28
8478 10596 10598 28
8479 10596 10599 28
8480 10596 10600 28
8481 10601 10602 28
8482 10601 10603 28
8483 10601 10604 28
8484 10601 10605 28
8485 10606 10607 28
8486 10606 10608 28
8487 10606 10609 28
8488 10606 10610 28
8489 10611 10612 28
8490 10611 10613 28
8491 10611 10614 28
8492 10611 10615 28
8493 10616 10617 28
8494 10616 10618 28
8495 10616 10619 28
8496 10616 10620 28
8497 10621 10622 28
8498 10621 10623 28
8499 10621 10624 28
8500 10621 10625 28
8501 10626 10627 28
8502 10626 10628 28
8503 10626 10629 28
8504 10626 10630 28
8505 10631 10632 28
8506 10631 10633 28
8507 10631 10634 28
8508 10631 10635 28
8509 10636 10637 28
8510 10636 10638 28
8511 10636 10639 28
8512 10636 10640 28
8513 10641 10642 28
8514 10641 10643 28
8515 10641 10644 28
8516 10641 10645 28
8517 10646 10647 28
8518 10646 10648 28
8519 10646 10649 28
8520 10646 10650 28
8521 10651 10652 28
8522 10651 10653 28
8523 10651 10654 28
8524 10651 10655 28
8525 10656 10657 28
8526 10656 10658 28
8527 10656 10659 28
8528 10656 10660 28
8529 10661 10662 28
8530 10661 10663 28
8531 10661 10664 28
8532 10661 10665 28
8533 10666 10667 28
8534 10666 10668 28
8535 10666 10669 28
8536 10666 10670 28
8537 10671 10672 28
8538 10671 10673 28
8539 10671 10674 28
8540 10671 10675 28
8541 10676 10677 28
8542 10676 10678 28
8543 10676 10679 28
8544 10676 10680 28
8545 10681 10682 28
8546 10681 10683 28
8547 10681 10684 28
8548 10681 10685 28
8549 10686 10687 28
8550 10686 10688 28
8551 10686 10689 28
8552 10686 10690 28
8553 10691 10692 28
8554 10691 10693 28
8555 10691 10694 28
8556 10691 10695 28
8557 10696 10697 28
8558 10696 10698 28
8559 10696 10699 28
8560 10696 10700 28
8561 10701 10702 28
8562 10701 10703 28
8563 10701 10704 28
8564 10701 10705 28
8565 10706 10707 28
8566 10706 10708 28
8567 10706 10709 28
8568 10706 10710 28
8569 10711 10712 28
8570 10711 10713 28
8571 10711 10714 28
8572 10711 10715 28
8573 10716 10717 28
8574 10716 10718 28
8575 10716 10719 28
8576 10716 10720 28
8577 10721 10722 28
8578 10721 10723 28
8579 10721 10724 28
8580 10721 10725 28
8581 10726 10727 28
8582 10726 10728 28
8583 10726 10729 28
8584 10726 10730 28
8585 10731 10732 28
8586 10731 10733 28
8587 10731 10734 28
8588 10731 10735 28
8589 10736 10737 28
8590 10736 10738 28
8591 10736 10739 28
8592 10736 10740 28
8593 10741 10742 28
8594 10741 10743 28
8595 10741 10744 28
8596 10741 10745 28
8597 10746 10747 28
8598 10746 10748 28
8599 10746 10749 28
8600 10746 10750 28
8601 10751 10752 28
8602 10751 10753 28
8603 10751 10754 28
8604 10751 10755 28
8605 10756 10757 28
8606 10756 10758 28
8607 10756 10759 28
8608 10756 10760 28
8609 10761 10762 28
8610 10761 10763 28
8611 10761 10764 28
8612 10761 10765 28
8613 10766 10767 28
8614 10766 10768 28
8615 10766 10769 28
8616 10766 10770 28
8617 10771 10772 28
8618 10771 10773 28
8619 10771 10774 28
8620 10771 10775 28
8621 10776 10777 28
8622 10776 10778 28
8623 10776 10779 28
8624 10776 10780 28
8625 10781 10782 28
8626 10781 10783 28
8627 10781 10784 28
8628 10781 10785 28
8629 10786 10787 28
8630 10786 10788 28
8631 10786 10789 28
8632 10786 10790 28
8633 10791 10792 28
8634 10791 10793 28
8635 10791 10794 28
8636 10791 10795 28
8637 10796 10797 28
8638 10796 10798 28
8639 10796 10799 28
8640 10796 10800 28
8641 10801 10802 28
8642 10801 10803 28
8643 10801 10804 28
8644 10801 10805 28
8645 10806 10807 28
8646 10806 10808 28
8647 10806 10809 28
8648 10806 10810 28
8649 10811 10812 28
8650 10811 10813 28
8651 10811 10814 28
8652 10811 10815 28
8653 10816 10817 28
8654 10816 10818 28
8655 10816 10819 28
8656 10816 10820 28
8657 10821 10822 28
8658 10821 10823 28
8659 10821 10824 28
8660 10821 10825 28
8661 10826 10827 28
8662 10826 10828 28
8663 10826 10829 28
8664 10826 10830 28
8665 10831 10832 28
8666 10831 10833 28
8667 10831 10834 28
8668 10831 10835 28
8669 10836 10837 28
8670 10836 10838 28
8671 10836 10839 28
8672 10836 10840 28
8673 10841 10842 28
8674 10841 10843 28
8675 10841 10844 28
8676 10841 10845 28
8677 10846 10847 28
8678 10846 10848 28
8679 10846 10849 28
8680 10846 10850 28
8681 10851 10852 28
8682 10851 10853 28
8683 10851 10854 28
8684 10851 10855 28
8685 10856 10857 28
8686 10856 10858 28
8687 10856 10859 28
8688 10856 10860 28
8689 10861 10862 28
8690 10861 10863 28
8691 10861 10864 28
8692 10861 10865 28
8693 10866 10867 28
8694 10866 10868 28
8695 10866 10869 28
8696 10866 10870 28
8697 10871 10872 28
8698 10871 10873 28
8699 10871 10874 28
8700 10871 10875 28
8701 10876 10877 28
8702 10876 10878 28
8703 10876 10879 28
8704 10876 10880 28
8705 10881 10882 28
8706 10881 10883 28
8707 10881 10884 28
8708 10881 10885 28
8709 10886 10887 28
8710 10886 10888 28
8711 10886 10889 28
8712 10886 10890 28
8713 10891 10892 28
8714 10891 10893 28
8715 10891 10894 28
8716 10891 10895 28
8717 10896 10897 28
8718 10896 10898 28
8719 10896 10899 28
8720 10896 10900 28
8721 10901 10902 28
8722 10901 10903 28
8723 10901 10904 28
8724 10901 10905 28
8725 10906 10907 28
8726 10906 10908 28
8727 10906 10909 28
8728 10906 10910 28
8729 10911 10912 28
8730 10911 10913 28
8731 10911 10914 28
8732 10911 10915 28
8733 10916 10917 28
8734 10916 10918 28
8735 10916 10919 28
8736 10916 10920 28
8737 10921 10922 28
8738 10921 10923 28
8739 10921 10924 28
8740 10921 10925 28
8741 10926 10927 28
8742 10926 10928 28
8743 10926 10929 28
8744 10926 10930 28
8745 10931 10932 28
8746 10931 10933 28
8747 10931 10934 28
8748 10931 10935 28
8749 10936 10937 28
8750 10936 10938 28
8751 10936 10939 28
8752 10936 10940 28
8753 10941 10942 28
8754 10941 10943 28
8755 10941 10944 28
8756 10941 10945 28
8757 10946 10947 28
8758 10946 10948 28
8759 10946 10949 28
8760 10946 10950 28
8761 10951 10952 28
8762 10951 10953 28
8763 10951 10954 28
8764 10951 10955 28
8765 10956 10957 28
8766 10956 10958 28
8767 10956 10959 28
8768 10956 10960 28
8769 10961 10962 28
8770 10961 10963 28
8771 10961 10964 28
8772 10961 10965 28
8773 10966 10967 28
8774 10966 10968 28
8775 10966 10969 28
8776 10966 10970 28
8777 10971 10972 28
8778 10971 10973 28
8779 10971 10974 28
8780 10971 10975 28
8781 10976 10977 28
8782 10976 10978 28
8783 10976 10979 28
8784 10976 10980 28
8785 10981 10982 28
8786 10981 10983 28
8787 10981 10984 28
8788 10981 10985 28
8789 10986 10987 28
8790 10986 10988 28
8791 10986 10989 28
8792 10986 10990 28
8793 10991 10992 28
8794 10991 10993 28
8795 10991 10994 28
8796 10991 10995 28
8797 10996 10997 28
8798 10996 10998 28
8799 10996 10999 28
8800 10996 11000 28
8801 11001 11002 28
8802 11001 11003 28
8803 11001 11004 28
8804 11001 11005 28
8805 11006 11007 28
8806 11006 11008 28
8807 11006 11009 28
8808 11006 11010 28
8809 11011 11012 28
8810 11011 11013 28
8811 11011 11014 28
8812 11011 11015 28
8813 11016 11017 28
8814 11016 11018 28
8815 11016 11019 28
8816 11016 11020 28
8817 11021 11022 28
8818 11021 11023 28
8819 11021 11024 28
8820 11021 11025 28
8821 11026 11027 28
8822 11026 11028 28
8823 11026 11029 28
8824 11026 11030 28
8825 11031 11032 28
8826 11031 11033 28
8827 11031 11034 28
8828 11031 11035 28
8829 11036 11037 28
8830 11036 11038 28
8831 11036 11039 28
8832 11036 11040 28
8833 11041 11042 28
8834 11041 11043 28
8835 11041 11044 28
8836 11041 11045 28
8837 11046 11047 28
8838 11046 11048 28
8839 11046 11049 28
8840 11046 11050 28
8841 11051 11052 28
8842 11051 11053 28
8843 11051 11054 28
8844 11051 11055 28
8845 11056 11057 28
8846 11056 11058 28
8847 11056 11059 28
8848 11056 11060 28
8849 11061 11062 28
8850 11061 11063 28
8851 11061 11064 28
8852 11061 11065 28
8853 11066 11067 28
8854 11066 11068 28
8855 11066 11069 28
8856 11066 11070 28
8857 11071 11072 28
8858 11071 11073 28
8859 11071 11074 28
8860 11071 11075 28
8861 11076 11077 28
8862 11076 11078 28
8863 11076 11079 28
8864 11076 11080 28
8865 11081 11082 28
8866 11081 11083 28
8867 11081 11084 28
8868 11081 11085 28
8869 11086 11087 28
8870 11086 11088 28
8871 11086 11089 28
8872 11086 11090 28
8873 11091 11092 28
8874 11091 11093 28
8875 11091 11094 28
8876 11091 11095 28
8877 11096 11097 28
8878 11096 11098 28
8879 11096 11099 28
8880 11096 11100 28
8881 11101 11102 28
8882 11101 11103 28
8883 11101 11104 28
8884 11101 11105 28
8885 11106 11107 28
8886 11106 11108 28
8887 11106 11109 28
8888 11106 11110 28
8889 11111 11112 28
8890 11111 11113 28
8891 11111 11114 28
8892 11111 11115 28
8893 11116 11117 28
8894 11116 11118 28
8895 11116 11119 28
8896 11116 11120 28
8897 11121 11122 28
8898 11121 11123 28
8899 11121 11124 28
8900 11121 11125 28
8901 11126 11127 28
8902 11126 11128 28
8903 11126 11129 28
8904 11126 11130 28
8905 11131 11132 28
8906 11131 11133 28
8907 11131 11134 28
8908 11131 11135 28
8909 11136 11137 28
8910 11136 11138 28
8911 11136 11139 28
8912 11136 11140 28
8913 11141 11142 28
8914 11141 11143 28
8915 11141 11144 28
8916 11141 11145 28
8917 11146 11147 28
8918 11146 11148 28
8919 11146 11149 28
8920 11146 11150 28
8921 11151 11152 28
8922 11151 11153 28
8923 11151 11154 28
8924 11151 11155 28
8925 11156 11157 28
8926 11156 11158 28
8927 11156 11159 28
8928 11156 11160 28
8929 11161 11162 28
8930 11161 11163 28
8931 11161 11164 28
8932 11161 11165 28
8933 11166 11167 28
8934 11166 11168 28
8935 11166 11169 28
8936 11166 11170 28
8937 11171 11172 28
8938 11171 11173 28
8939 11171 11174 28
8940 11171 11175 28
8941 11176 11177 28
8942 11176 11178 28
8943 11176 11179 28
8944 11176 11180 28
8945 11181 11182 28
8946 11181 11183 28
8947 11181 11184 28
8948 11181 11185 28
8949 11186 11187 28
8950 11186 11188 28
8951 11186 11189 28
8952 11186 11190 28
8953 11191 11192 28
8954 11191 11193 28
8955 11191 11194 28
8956 11191 11195 28
8957 11196 11197 28
8958 11196 11198 28
8959 11196 11199 28
8960 11196 11200 28
8961 11201 11202 28
8962 11201 11203 28
8963 11201 11204 28
8964 11201 11205 28
8965 11206 11207 28
8966 11206 11208 28
8967 11206 11209 28
8968 11206 11210 28
8969 11211 11212 28
8970 11211 11213 28
8971 11211 11214 28
8972 11211 11215 28
8973 11216 11217 28
8974 11216 11218 28
8975 11216 11219 28
8976 11216 11220 28
8977 11221 11222 28
8978 11221 11223 28
8979 11221 11224 28
8980 11221 11225 28
8981 11226 11227 28
8982 11226 11228 28
8983 11226 11229 28
8984 11226 11230 28
8985 11231 11232 28
8986 11231 11233 28
8987 11231 11234 28
8988 11231 11235 28
8989 11236 11237 28
8990 11236 11238 28
8991 11236 11239 28
8992 11236 11240 28
8993 11241 11242 28
8994 11241 11243 28
8995 11241 11244 28
8996 11241 11245 28
8997 11246 11247 28
8998 11246 11248 28
8999 11246 11249 28
9000 11246 11250 28
9001 11251 11252 28
9002 11251 11253 28
9003 11251 11254 28
9004 11251 11255 28
9005 11256 11257 28
9006 11256 11258 28
9007 11256 11259 28
9008 11256 11260 28
9009 11261 11262 28
9010 11261 11263 28
9011 11261 11264 28
9012 11261 11265 28
9013 11266 11267 28
9014 11266 11268 28
9015 11266 11269 28
9016 11266 11270 28
9017 11271 11272 28
9018 11271 11273 28
9019 11271 11274 28
9020 11271 11275 28
9021 11276 11277 28
9022 11276 11278 28
9023 11276 11279 28
9024 11276 11280 28
9025 11281 11282 28
9026 11281 11283 28
9027 11281 11284 28
9028 11281 11285 28
9029 11286 11287 28
9030 11286 11288 28
9031 11286 11289 28
9032 11286 11290 28
9033 11291 11292 28
9034 11291 11293 28
9035 11291 11294 28
9036 11291 11295 28
9037 11296 11297 28
9038 11296 11298 28
9039 11296 11299 28
9040 11296 11300 28
9041 11301 11302 28
9042 11301 11303 28
9043 11301 11304 28
9044 11301 11305 28
9045 11306 11307 28
9046 11306 11308 28
9047 11306 11309 28
9048 11306 11310 28
9049 11311 11312 28
9050 11311 11313 28
9051 11311 11314 28
9052 11311 11315 28
9053 11316 11317 28
9054 11316 11318 28
9055 11316 11319 28
9056 11316 11320 28
9057 11321 11322 28
9058 11321 11323 28
9059 11321 11324 28
9060 11321 11325 28
9061 11326 11327 28
9062 11326 11328 28
9063 11326 11329 28
9064 11326 11330 28
9065 11331 11332 28
9066 11331 11333 28
9067 11331 11334 28
9068 11331 11335 28
9069 11336 11337 28
9070 11336 11338 28
9071 11336 11339 28
9072 11336 11340 28
9073 11341 11342 28
9074 11341 11343 28
9075 11341 11344 28
9076 11341 11345 28
9077 11346 11347 28
9078 11346 11348 28
9079 11346 11349 28
9080 11346 11350 28
9081 11351 11352 28
9082 11351 11353 28
9083 11351 11354 28
9084 11351 11355 28
9085 11356 11357 28
9086 11356 11358 28
9087 11356 11359 28
9088 11356 11360 28
9089 11361 11362 28
9090 11361 11363 28
9091 11361 11364 28
9092 11361 11365 28
9093 11366 11367 28
9094 11366 11368 28
9095 11366 11369 28
9096 11366 11370 28
9097 11371 11372 28
9098 11371 11373 28
9099 11371 11374 28
9100 11371 11375 28
9101 11376 11377 28
9102 11376 11378 28
9103 11376 11379 28
9104 11376 11380 28
9105 11381 11382 28
9106 11381 11383 28
9107 11381 11384 28
9108 11381 11385 28
9109 11386 11387 28
9110 11386 11388 28
9111 11386 11389 28
9112 11386 11390 28
9113 11391 11392 28
9114 11391 11393 28
9115 11391 11394 28
9116 11391 11395 28
9117 11396 11397 28
9118 11396 11398 28
9119 11396 11399 28
9120 11396 11400 28
9121 11401 11402 28
9122 11401 11403 28
9123 11401 11404 28
9124 11401 11405 28
9125 11406 11407 28
9126 11406 11408 28
9127 11406 11409 28
9128 11406 11410 28
9129 11411 11412 28
9130 11411 11413 28
9131 11411 11414 28
9132 11411 11415 28
9133 11416 11417 28
9134 11416 11418 28
9135 11416 11419 28
9136 11416 11420 28
9137 11421 11422 28
9138 11421 11423 28
9139 11421 11424 28
9140 11421 11425 28
9141 11426 11427 28
9142 11426 11428 28
9143 11426 11429 28
9144 11426 11430 28
9145 11431 11432 28
9146 11431 11433 28
9147 11431 11434 28
9148 11431 11435 28
9149 11436 11437 28
9150 11436 11438 28
9151 11436 11439 28
9152 11436 11440 28
9153 11441 11442 28
9154 11441 11443 28
9155 11441 11444 28
9156 11441 11445 28
9157 11446 11447 28
9158 11446 11448 28
9159 11446 11449 28
9160 11446 11450 28
9161 11451 11452 28
9162 11451 11453 28
9163 11451 11454 28
9164 11451 11455 28
9165 11456 11457 28
9166 11456 11458 28
9167 11456 11459 28
9168 11456 11460 28
9169 11461 11462 28
9170 11461 11463 28
9171 11461 11464 28
9172 11461 11465 28
9173 11466 11467 28
9174 11466 11468 28
9175 11466 11469 28
9176 11466 11470 28
9177 11471 11472 28
9178 11471 11473 28
9179 11471 11474 28
9180 11471 11475 28
9181 11476 11477 28
9182 11476 11478 28
9183 11476 11479 28
9184 11476 11480 28
9185 11481 11482 28
9186 11481 11483 28
9187 11481 11484 28
9188 11481 11485 28
9189 11486 11487 28
9190 11486 11488 28
9191 11486 11489 28
9192 11486 11490 28
9193 11491 11492 28
9194 11491 11493 28
9195 11491 11494 28
9196 11491 11495 28
9197 11496 11497 28
9198 11496 11498 28
9199 11496 11499 28
9200 11496 11500 28
9201 11501 11502 28
9202 11501 11503 28
9203 11501 11504 28
9204 11501 11505 28
9205 11506 11507 28
9206 11506 11508 28
9207 11506 11509 28
9208 11506 11510 28
9209 11511 11512 28
9210 11511 11513 28
9211 11511 11514 28
9212 11511 11515 28
9213 11516 11517 28
9214 11516 11518 28
9215 11516 11519 28
9216 11516 11520 28
9217 11521 11522 28
9218 11521 11523 28
9219 11521 11524 28
9220 11521 11525 28
9221 11526 11527 28
9222 11526 11528 28
9223 11526 11529 28
9224 11526 11530 28
9225 11531 11532 28
9226 11531 11533 28
9227 11531 11534 28
9228 11531 11535 28
9229 11536 11537 28
9230 11536 11538 28
9231 11536 11539 28
9232 11536 11540 28
9233 11541 11542 28
9234 11541 11543 28
9235 11541 11544 28
9236 11541 11545 28
9237 11546 11547 28
9238 11546 11548 28
9239 11546 11549 28
9240 11546 11550 28
9241 11551 11552 28
9242 11551 11553 28
9243 11551 11554 28
9244 11551 11555 28
9245 11556 11557 28
9246 11556 11558 28
9247 11556 11559 28
9248 11556 11560 28
9249 11561 11562 28
9250 11561 11563 28
9251 11561 11564 28
9252 11561 11565 28
9253 11566 11567 28
9254 11566 11568 28
9255 11566 11569 28
9256 11566 11570 28
9257 11571 11572 28
9258 11571 11573 28
9259 11571 11574 28
9260 11571 11575 28
9261 11576 11577 28
9262 11576 11578 28
9263 11576 11579 28
9264 11576 11580 28
9265 11581 11582 28
9266 11581 11583 28
9267 11581 11584 28
9268 11581 11585 28
9269 11586 11587 28
9270 11586 11588 28
9271 11586 11589 28
9272 11586 11590 28
9273 11591 11592 28
9274 11591 11593 28
9275 11591 11594 28
9276 11591 11595 28
9277 11596 11597 28
9278 11596 11598 28
9279 11596 11599 28
9280 11596 11600 28
9281 11601 11602 28
9282 11601 11603 28
9283 11601 11604 28
9284 11601 11605 28
9285 11606 11607 28
9286 11606 11608 28
9287 11606 11609 28
9288 11606 11610 28
9289 11611 11612 28
9290 11611 11613 28
9291 11611 11614 28
9292 11611 11615 28
9293 11616 11617 28
9294 11616 11618 28
9295 11616 11619 28
9296 11616 11620 28
9297 11621 11622 28
9298 11621 11623 28
9299 11621 11624 28
9300 11621 11625 28
9301 11626 11627 28
9302 11626 11628 28
9303 11626 11629 28
9304 11626 11630 28
9305 11631 11632 28
9306 11631 11633 28
9307 11631 11634 28
9308 11631 11635 28
9309 11636 11637 28
9310 11636 11638 28
9311 11636 11639 28
9312 11636 11640 28
9313 11641 11642 28
9314 11641 11643 28
9315 11641 11644 28
9316 11641 11645 28
9317 11646 11647 28
9318 11646 11648 28
9319 11646 11649 28
9320 11646 11650 28
9321 11651 11652 28
9322 11651 11653 28
9323 11651 11654 28
9324 11651 11655 28
9325 11656 11657 28
9326 11656 11658 28
9327 11656 11659 28
9328 11656 11660 28
9329 11661 11662 28
9330 11661 11663 28
9331 11661 11664 28
9332 11661 11665 28
9333 11666 11667 28
9334 11666 11668 28
9335 11666 11669 28
9336 11666 11670 28
9337 11671 11672 28
9338 11671 11673 28
9339 11671 11674 28
9340 11671 11675 28
9341 11676 11677 28
9342 11676 11678 28
9343 11676 11679 28
9344 11676 11680 28
9345 11681 11682 28
9346 11681 11683 28
9347 11681 11684 28
9348 11681 11685 28
9349 11686 11687 28
9350 11686 11688 28
9351 11686 11689 28
9352 11686 11690 28
9353 11691 11692 28
9354 11691 11693 28
9355 11691 11694 28
9356 11691 11695 28
9357 11696 11697 28
9358 11696 11698 28
9359 11696 11699 28
9360 11696 11700 28
9361 11701 11702 28
9362 11701 11703 28
9363 11701 11704 28
9364 11701 11705 28
9365 11706 11707 28
9366 11706 11708 28
9367 11706 11709 28
9368 11706 11710 28
9369 11711 11712 28
9370 11711 11713 28
9371 11711 11714 28
9372 11711 11715 28
9373 11716 11717 28
9374 11716 11718 28
9375 11716 11719 28
9376 11716 11720 28
9377 11721 11722 28
9378 11721 11723 28
9379 11721 11724 28
9380 11721 11725 28
9381 11726 11727 28
9382 11726 11728 28
9383 11726 11729 28
9384 11726 11730 28
9385 11731 11732 28
9386 11731 11733 28
9387 11731 11734 28
9388 11731 11735 28
9389 11736 11737 28
9390 11736 11738 28
9391 11736 11739 28
9392 11736 11740 28
9393 11741 11742 28
9394 11741 11743 28
9395 11741 11744 28
9396 11741 11745 28
9397 11746 11747 28
9398 11746 11748 28
9399 11746 11749 28
9400 11746 11750 28
9401 11751 11752 28
9402 11751 11753 28
9403 11751 11754 28
9404 11751 11755 28
9405 11756 11757 28
9406 11756 11758 28
9407 11756 11759 28
9408 11756 11760 28
9409 11761 11762 28
9410 11761 11763 28
9411 11761 11764 28
9412 11761 11765 28
9413 11766 11767 28
9414 11766 11768 28
9415 11766 11769 28
9416 11766 11770 28
9417 11771 11772 28
9418 11771 11773 28
9419 11771 11774 28
9420 11771 11775 28
9421 11776 11777 28
9422 11776 11778 28
9423 11776 11779 28
9424 11776 11780 28
9425 11781 11782 28
9426 11781 11783 28
9427 11781 11784 28
9428 11781 11785 28
9429 11786 11787 28
9430 11786 11788 28
9431 11786 11789 28
9432 11786 11790 28
9433 11791 11792 28
9434 11791 11793 28
9435 11791 11794 28
9436 11791 11795 28
9437 11796 11797 28
9438 11796 11798 28
9439 11796 11799 28
9440 11796 11800 28
9441 11801 11802 28
9442 11801 11803 28
9443 11801 11804 28
9444 11801 11805 28
9445 11806 11807 28
9446 11806 11808 28
9447 11806 11809 28
9448 11806 11810 28
9449 11811 11812 28
9450 11811 11813 28
9451 11811 11814 28
9452 11811 11815 28
9453 11816 11817 28
9454 11816 11818 28
9455 11816 11819 28
9456 11816 11820 28
9457 11821 11822 28
9458 11821 11823 28
9459 11821 11824 28
9460 11821 11825 28
9461 11826 11827 28
9462 11826 11828 28
9463 11826 11829 28
9464 11826 11830 28
9465 11831 11832 28
9466 11831 11833 28
9467 11831 11834 28
9468 11831 11835 28
9469 11836 11837 28
9470 11836 11838 28
9471 11836 11839 28
9472 11836 11840 28
9473 11841 11842 28
9474 11841 11843 28
9475 11841 11844 28
9476 11841 11845 28
9477 11846 11847 28
9478 11846 11848 28
9479 11846 11849 28
9480 11846 11850 28
9481 11851 11852 28
9482 11851 11853 28
9483 11851 11854 28
9484 11851 11855 28
9485 11856 11857 28
9486 11856 11858 28
9487 11856 11859 28
9488 11856 11860 28
9489 11861 11862 28
9490 11861 11863 28
9491 11861 11864 28
9492 11861 11865 28
9493 11866 11867 28
9494 11866 11868 28
9495 11866 11869 28
9496 11866 11870 28
9497 11871 11872 28
9498 11871 11873 28
9499 11871 11874 28
9500 11871 11875 28
9501 11876 11877 28
9502 11876 11878 28
9503 11876 11879 28
9504 11876 11880 28
9505 11881 11882 28
9506 11881 11883 28
9507 11881 11884 28
9508 11881 11885 28
9509 11886 11887 28
9510 11886 11888 28
9511 11886 11889 28
9512 11886 11890 28
9513 11891 11892 28
9514 11891 11893 28
9515 11891 11894 28
9516 11891 11895 28
9517 11896 11897 28
9518 11896 11898 28
9519 11896 11899 28
9520 11896 11900 28
9521 11901 11902 28
9522 11901 11903 28
9523 11901 11904 28
9524 11901 11905 28
9525 11906 11907 28
9526 11906 11908 28
9527 11906 11909 28
9528 11906 11910 28
9529 11911 11912 28
9530 11911 11913 28
9531 11911 11914 28
9532 11911 11915 28
9533 11916 11917 28
9534 11916 11918 28
9535 11916 11919 28
9536 11916 11920 28
9537 11921 11922 28
9538 11921 11923 28
9539 11921 11924 28
9540 11921 11925 28
9541 11926 11927 28
9542 11926 11928 28
9543 11926 11929 28
9544 11926 11930 28
9545 11931 11932 28
9546 11931 11933 28
9547 11931 11934 28
9548 11931 11935 28
9549 11936 11937 28
9550 11936 11938 28
9551 11936 11939 28
9552 11936 11940 28
9553 11941 11942 28
9554 11941 11943 28
9555 11941 11944 28
9556 11941 11945 28
9557 11946 11947 28
9558 11946 11948 28
9559 11946 11949 28
9560 11946 11950 28
9561 11951 11952 28
9562 11951 11953 28
9563 11951 11954 28
9564 11951 11955 28
9565 11956 11957 28
9566 11956 11958 28
9567 11956 11959 28
9568 11956 11960 28
9569 11961 11962 28
9570 11961 11963 28
9571 11961 11964 28
9572 11961 11965 28
9573 11966 11967 28
9574 11966 11968 28
9575 11966 11969 28
9576 11966 11970 28
9577 11971 11972 28
9578 11971 11973 28
9579 11971 11974 28
9580 11971 11975 28
9581 11976 11977 28
9582 11976 11978 28
9583 11976 11979 28
9584 11976 11980 28
9585 11981 11982 28
9586 11981 11983 28
9587 11981 11984 28
9588 11981 11985 28
9589 11986 11987 28
9590 11986 11988 28
9591 11986 11989 28
9592 11986 11990 28
9593 11991 11992 28
9594 11991 11993 28
9595 11991 11994 28
9596 11991 11995 28
9597 11996 11997 28
9598 11996 11998 28
9599 11996 11999 28
9600 11996 12000 28
9601 12001 12002 28
9602 12001 12003 28
9603 12001 12004 28
9604 12001 12005 28
9605 12006 12007 28
9606 12006 12008 28
9607 12006 12009 28
9608 12006 12010 28
9609 12011 12012 28
9610 12011 12013 28
9611 12011 12014 28
9612 12011 12015 28
9613 12016 12017 28
9614 12016 12018 28
9615 12016 12019 28
9616 12016 12020 28
9617 12021 12022 28
9618 12021 12023 28
9619 12021 12024 28
9620 12021 12025 28
9621 12026 12027 28
9622 12026 12028 28
9623 12026 12029 28
9624 12026 12030 28
9625 12031 12032 28
9626 12031 12033 28
9627 12031 12034 28
9628 12031 12035 28
9629 12036 12037 28
9630 12036 12038 28
9631 12036 12039 28
9632 12036 12040 28
9633 12041 12042 28
9634 12041 12043 28
9635 12041 12044 28
9636 12041 12045 28
9637 12046 12047 28
9638 12046 12048 28
9639 12046 12049 28
9640 12046 12050 28
9641 12051 12052 28
9642 12051 12053 28
9643 12051 12054 28
9644 12051 12055 28
9645 12056 12057 28
9646 12056 12058 28
9647 12056 12059 28
9648 12056 12060 28
9649 12061 12062 28
9650 12061 12063 28
9651 12061 12064 28
9652 12061 12065 28
9653 12066 12067 28
9654 12066 12068 28
9655 12066 12069 28
9656 12066 12070 28
9657 12071 12072 28
9658 12071 12073 28
9659 12071 12074 28
9660 12071 12075 28
9661 12076 12077 28
9662 12076 12078 28
9663 12076 12079 28
9664 12076 12080 28
9665 12081 12082 28
9666 12081 12083 28
9667 12081 12084 28
9668 12081 12085 28
9669 12086 12087 28
9670 12086 12088 28
9671 12086 12089 28
9672 12086 12090 28
9673 12091 12092 28
9674 12091 12093 28
9675 12091 12094 28
9676 12091 12095 28
9677 12096 12097 28
9678 12096 12098 28
9679 12096 12099 28
9680 12096 12100 28
9681 12101 12102 28
9682 12101 12103 28
9683 12101 12104 28
9684 12101 12105 28
9685 12106 12107 28
9686 12106 12108 28
9687 12106 12109 28
9688 12106 12110 28
9689 12111 12112 28
9690 12111 12113 28
9691 12111 12114 28
9692 12111 12115 28
9693 12116 12117 28
9694 12116 12118 28
9695 12116 12119 28
9696 12116 12120 28
9697 12121 12122 28
9698 12121 12123 28
9699 12121 12124 28
9700 12121 12125 28
9701 12126 12127 28
9702 12126 12128 28
9703 12126 12129 28
9704 12126 12130 28
9705 12131 12132 28
9706 12131 12133 28
9707 12131 12134 28
9708 12131 12135 28
9709 12136 12137 28
9710 12136 12138 28
9711 12136 12139 28
9712 12136 12140 28
9713 12141 12142 28
9714 12141 12143 28
9715 12141 12144 28
9716 12141 12145 28
9717 12146 12147 28
9718 12146 12148 28
9719 12146 12149 28
9720 12146 12150 28
9721 12151 12152 28
9722 12151 12153 28
9723 12151 12154 28
9724 12151 12155 28
9725 12156 12157 28
9726 12156 12158 28
9727 12156 12159 28
9728 12156 12160 28
9729 12161 12162 28
9730 12161 12163 28
9731 12161 12164 28
9732 12161 12165 28
9733 12166 12167 28
9734 12166 12168 28
9735 12166 12169 28
9736 12166 12170 28
9737 12171 12172 28
9738 12171 12173 28
9739 12171 12174 28
9740 12171 12175 28
9741 12176 12177 28
9742 12176 12178 28
9743 12176 12179 28
9744 12176 12180 28
9745 12181 12182 28
9746 12181 12183 28
9747 12181 12184 28
9748 12181 12185 28
9749 12186 12187 28
9750 12186 12188 28
9751 12186 12189 28
9752 12186 12190 28
9753 12191 12192 28
9754 12191 12193 28
9755 12191 12194 28
9756 12191 12195 28
9757 12196 12197 28
9758 12196 12198 28
9759 12196 12199 28
9760 12196 12200 28
9761 12201 12202 28
9762 12201 12203 28
9763 12201 12204 28
9764 12201 12205 28
9765 12206 12207 28
9766 12206 12208 28
9767 12206 12209 28
9768 12206 12210 28
9769 12211 12212 28
9770 12211 12213 28
9771 12211 12214 28
9772 12211 12215 28
9773 12216 12217 28
9774 12216 12218 28
9775 12216 12219 28
9776 12216 12220 28
9777 12221 12222 28
9778 12221 12223 28
9779 12221 12224 28
9780 12221 12225 28
9781 12226 12227 28
9782 12226 12228 28
9783 12226 12229 28
9784 12226 12230 28
9785 12231 12232 28
9786 12231 12233 28
9787 12231 12234 28
9788 12231 12235 28
9789 12236 12237 28
9790 12236 12238 28
9791 12236 12239 28
9792 12236 12240 28
9793 12241 12242 28
9794 12241 12243 28
9795 12241 12244 28
9796 12241 12245 28
9797 12246 12247 28
9798 12246 12248 28
9799 12246 12249 28
9800 12246 12250 28
9801 12251 12252 28
9802 12251 12253 28
9803 12251 12254 28
9804 12251 12255 28
9805 12256 12257 28
9806 12256 12258 28
9807 12256 12259 28
9808 12256 12260 28
9809 12261 12262 28
9810 12261 12263 28
9811 12261 12264 28
9812 12261 12265 28
9813 12266 12267 28
9814 12266 12268 28
9815 12266 12269 28
9816 12266 12270 28
9817 12271 12272 28
9818 12271 12273 28
9819 12271 12274 28
9820 12271 12275 28
9821 12276 12277 28
9822 12276 12278 28
9823 12276 12279 28
9824 12276 12280 28
9825 12281 12282 28
9826 12281 12283 28
9827 12281 12284 28
9828 12281 12285 28
9829 12286 12287 28
9830 12286 12288 28
9831 12286 12289 28
9832 12286 12290 28
9833 12291 12292 28
9834 12291 12293 28
9835 12291 12294 28
9836 12291 12295 28
9837 12296 12297 28
9838 12296 12298 28
9839 12296 12299 28
9840 12296 12300 28
9841 12301 12302 28
9842 12301 12303 28
9843 12301 12304 28
9844 12301 12305 28
9845 12306 12307 28
9846 12306 12308 28
9847 12306 12309 28
9848 12306 12310 28
9849 12311 12312 28
9850 12311 12313 28
9851 12311 12314 28
9852 12311 12315 28
9853 12316 12317 28
9854 12316 12318 28
9855 12316 12319 28
9856 12316 12320 28
9857 12321 12322 28
9858 12321 12323 28
9859 12321 12324 28
9860 12321 12325 28
9861 12326 12327 28
9862 12326 12328 28
9863 12326 12329 28
9864 12326 12330 28
9865 12331 12332 28
9866 12331 12333 28
9867 12331 12334 28
9868 12331 12335 28
9869 12336 12337 28
9870 12336 12338 28
9871 12336 12339 28
9872 12336 12340 28
9873 12341 12342 28
9874 12341 12343 28
9875 12341 12344 28
9876 12341 12345 28
9877 12346 12347 28
9878 12346 12348 28
9879 12346 12349 28
9880 12346 12350 28
9881 12351 12352 28
9882 12351 12353 28
9883 12351 12354 28
9884 12351 12355 28
9885 12356 12357 28
9886 12356 12358 28
9887 12356 12359 28
9888 12356 12360 28
9889 12361 12362 28
9890 12361 12363 28
9891 12361 12364 28
9892 12361 12365 28
9893 12366 12367 28
9894 12366 12368 28
9895 12366 12369 28
9896 12366 12370 28
9897 12371 12372 28
9898 12371 12373 28
9899 12371 12374 28
9900 12371 12375 28
9901 12376 12377 28
9902 12376 12378 28
9903 12376 12379 28
9904 12376 12380 28
9905 12381 12382 28
9906 12381 12383 28
9907 12381 12384 28
9908 12381 12385 28
9909 12386 12387 28
9910 12386 12388 28
9911 12386 12389 28
9912 12386 12390 28
9913 12391 12392 28
9914 12391 12393 28
9915 12391 12394 28
9916 12391 12395 28
9917 12396 12397 28
9918 12396 12398 28
9919 12396 12399 28
9920 12396 12400 28
9921 12401 12402 28
9922 12401 12403 28
9923 12401 12404 28
9924 12401 12405 28
9925 12406 12407 28
9926 12406 12408 28
9927 12406 12409 28
9928 12406 12410 28
9929 12411 12412 28
9930 12411 12413 28
9931 12411 12414 28
9932 12411 12415 28
9933 12416 12417 28
9934 12416 12418 28
9935 12416 12419 28
9936 12416 12420 28
9937 12421 12422 28
9938 12421 12423 28
9939 12421 12424 28
9940 12421 12425 28
9941 12426 12427 28
9942 12426 12428 28
9943 12426 12429 28
9944 12426 12430 28
9945 12431 12432 28
9946 12431 12433 28
9947 12431 12434 28
9948 12431 12435 28
9949 12436 12437 28
9950 12436 12438 28
9951 12436 12439 28
9952 12436 12440 28
9953 12441 12442 28
9954 12441 12443 28
9955 12441 12444 28
9956 12441 12445 28
9957 12446 12447 28
9958 12446 12448 28
9959 12446 12449 28
9960 12446 12450 28
9961 12451 12452 28
9962 12451 12453 28
9963 12451 12454 28
9964 12451 12455 28
9965 12456 12457 28
9966 12456 12458 28
9967 12456 12459 28
9968 12456 12460 28
9969 12461 12462 28
9970 12461 12463 28
9971 12461 12464 28
9972 12461 12465 28
9973 12466 12467 28
9974 12466 12468 28
9975 12466 12469 28
9976 12466 12470 28
9977 12471 12472 28
9978 12471 12473 28
9979 12471 12474 28
9980 12471 12475 28
9981 12476 12477 28
9982 12476 12478 28
9983 12476 12479 28
9984 12476 12480 28
9985 12481 12482 28
9986 12481 12483 28
9987 12481 12484 28
9988 12481 12485 28
9989 12486 12487 28
9990 12486 12488 28
9991 12486 12489 28
9992 12486 12490 28
9993 12491 12492 28
9994 12491 12493 28
9995 12491 12494 28
9996 12491 12495 28
9997 12496 12497 28
9998 12496 12498 28
9999 12496 12499 28
10000 12496 12500 28
10001 12501 12502 28
10002 12501 12503 28
10003 12501 12504 28
10004 12501 12505 28
10005 12506 12507 28
10006 12506 12508 28
10007 12506 12509 28
10008 12506 12510 28
10009 12511 12512 28
10010 12511 12513 28
10011 12511 12514 28
10012 12511 12515 28
10013 12516 12517 28
10014 12516 12518 28
10015 12516 12519 28
10016 12516 12520 28
10017 12521 12522 28
10018 12521 12523 28
10019 12521 12524 28
10020 12521 12525 28
10021 12526 12527 28
10022 12526 12528 28
10023 12526 12529 28
10024 12526 12530 28
10025 12531 12532 28
10026 12531 12533 28
10027 12531 12534 28
10028 12531 12535 28
10029 12536 12537 28
10030 12536 12538 28
10031 12536 12539 28
10032 12536 12540 28
10033 12541 12542 28
10034 12541 12543 28
10035 12541 12544 28
10036 12541 12545 28
10037 12546 12547 28
10038 12546 12548 28
10039 12546 12549 28
10040 12546 12550 28
10041 12551 12552 28
10042 12551 12553 28
10043 12551 12554 28
10044 12551 12555 28
10045 12556 12557 28
10046 12556 12558 28
10047 12556 12559 28
10048 12556 12560 28
10049 12561 12562 28
10050 12561 12563 28
10051 12561 12564 28
10052 12561 12565 28
10053 12566 12567 28
10054 12566 12568 28
10055 12566 12569 28
10056 12566 12570 28
10057 12571 12572 28
10058 12571 12573 28
10059 12571 12574 28
10060 12571 12575 28
10061 12576 12577 28
10062 12576 12578 28
10063 12576 12579 28
10064 12576 12580 28
10065 12581 12582 28
10066 12581 12583 28
10067 12581 12584 28
10068 12581 12585 28
10069 12586 12587 28
10070 12586 12588 28
10071 12586 12589 28
10072 12586 12590 28
10073 12591 12592 28
10074 12591 12593 28
10075 12591 12594 28
10076 12591 12595 28
10077 12596 12597 28
10078 12596 12598 28
10079 12596 12599 28
10080 12596 12600 28
10081 12601 12602 28
10082 12601 12603 28
10083 12601 12604 28
10084 12601 12605 28
10085 12606 12607 28
10086 12606 12608 28
10087 12606 12609 28
10088 12606 12610 28
10089 12611 12612 28
10090 12611 12613 28
10091 12611 12614 28
10092 12611 12615 28
10093 12616 12617 28
10094 12616 12618 28
10095 12616 12619 28
10096 12616 12620 28
10097 12621 12622 28
10098 12621 12623 28
10099 12621 12624 28
10100 12621 12625 28
10101 12626 12627 28
10102 12626 12628 28
10103 12626 12629 28
10104 12626 12630 28
10105 12631 12632 28
10106 12631 12633 28
10107 12631 12634 28
10108 12631 12635 28
10109 12636 12637 28
10110 12636 12638 28
10111 12636 12639 28
10112 12636 12640 28
10113 12641 12642 28
10114 12641 12643 28
10115 12641 12644 28
10116 12641 12645 28
10117 12646 12647 28
10118 12646 12648 28
10119 12646 12649 28
10120 12646 12650 28
10121 12651 12652 28
10122 12651 12653 28
10123 12651 12654 28
10124 12651 12655 28
10125 12656 12657 28
10126 12656 12658 28
10127 12656 12659 28
10128 12656 12660 28
10129 12661 12662 28
10130 12661 12663 28
10131 12661 12664 28
10132 12661 12665 28
10133 12666 12667 28
10134 12666 12668 28
10135 12666 12669 28
10136 12666 12670 28
10137 12671 12672 28
10138 12671 12673 28
10139 12671 12674 28
10140 12671 12675 28
10141 12676 12677 28
10142 12676 12678 28
10143 12676 12679 28
10144 12676 12680 28
10145 12681 12682 28
10146 12681 12683 28
10147 12681 12684 28
10148 12681 12685 28
10149 12686 12687 28
10150 12686 12688 28
10151 12686 12689 28
10152 12686 12690 28
10153 12691 12692 28
10154 12691 12693 28
10155 12691 12694 28
10156 12691 12695 28
10157 12696 12697 28
10158 12696 12698 28
10159 12696 12699 28
10160 12696 12700 28
10161 12701 12702 28
10162 12701 12703 28
10163 12701 12704 28
10164 12701 12705 28
10165 12706 12707 28
10166 12706 12708 28
10167 12706 12709 28
10168 12706 12710 28
10169 12711 12712 28
10170 12711 12713 28
10171 12711 12714 28
10172 12711 12715 28
10173 12716 12717 28
10174 12716 12718 28
10175 12716 12719 28
10176 12716 12720 28
10177 12721 12722 28
10178 12721 12723 28
10179 12721 12724 28
10180 12721 12725 28
10181 12726 12727 28
10182 12726 12728 28
10183 12726 12729 28
10184 12726 12730 28
10185 12731 12732 28
10186 12731 12733 28
10187 12731 12734 28
10188 12731 12735 28
10189 12736 12737 28
10190 12736 12738 28
10191 12736 12739 28
10192 12736 12740 28
10193 12741 12742 28
10194 12741 12743 28
10195 12741 12744 28
10196 12741 12745 28
10197 12746 12747 28
10198 12746 12748 28
10199 12746 12749 28
10200 12746 12750 28
10201 12751 12752 28
10202 12751 12753 28
10203 12751 12754 28
10204 12751 12755 28
10205 12756 12757 28
10206 12756 12758 28
10207 12756 12759 28
10208 12756 12760 28
10209 12761 12762 28
10210 12761 12763 28
10211 12761 12764 28
10212 12761 12765 28
10213 12766 12767 28
10214 12766 12768 28
10215 12766 12769 28
10216 12766 12770 28
10217 12771 12772 28
10218 12771 12773 28
10219 12771 12774 28
10220 12771 12775 28
10221 12776 12777 28
10222 12776 12778 28
10223 12776 12779 28
10224 12776 12780 28
10225 12781 12782 28
10226 12781 12783 28
10227 12781 12784 28
10228 12781 12785 28
10229 12786 12787 28
10230 12786 12788 28
10231 12786 12789 28
10232 12786 12790 28
10233 12791 12792 28
10234 12791 12793 28
10235 12791 12794 28
10236 12791 12795 28
10237 12796 12797 28
10238 12796 12798 28
10239 12796 12799 28
10240 12796 12800 28
10241 12801 12802 28
10242 12801 12803 28
10243 12801 12804 28
10244 12801 12805 28
10245 12806 12807 28
10246 12806 12808 28
10247 12806 12809 28
10248 12806 12810 28
10249 12811 12812 28
10250 12811 12813 28
10251 12811 12814 28
10252 12811 12815 28
10253 12816 12817 28
10254 12816 12818 28
10255 12816 12819 28
10256 12816 12820 28
10257 12821 12822 28
10258 12821 12823 28
10259 12821 12824 28
10260 12821 12825 28
10261 12826 12827 28
10262 12826 12828 28
10263 12826 12829 28
10264 12826 12830 28
10265 12831 12832 28
10266 12831 12833 28
10267 12831 12834 28
10268 12831 12835 28
10269 12836 12837 28
10270 12836 12838 28
10271 12836 12839 28
10272 12836 12840 28
10273 12841 12842 28
10274 12841 12843 28
10275 12841 12844 28
10276 12841 12845 28
10277 12846 12847 28
10278 12846 12848 28
10279 12846 12849 28
10280 12846 12850 28
10281 12851 12852 28
10282 12851 12853 28
10283 12851 12854 28
10284 12851 12855 28
10285 12856 12857 28
10286 12856 12858 28
10287 12856 12859 28
10288 12856 12860 28
10289 12861 12862 28
10290 12861 12863 28
10291 12861 12864 28
10292 12861 12865 28
10293 12866 12867 28
10294 12866 12868 28
10295 12866 12869 28
10296 12866 12870 28
10297 12871 12872 28
10298 12871 12873 28
10299 12871 12874 28
10300 12871 12875 28
10301 12876 12877 28
10302 12876 12878 28
10303 12876 12879 28
10304 12876 12880 28
10305 12881 12882 28
10306 12881 12883 28
10307 12881 12884 28
10308 12881 12885 28
10309 12886 12887 28
10310 12886 12888 28
10311 12886 12889 28
10312 12886 12890 28
10313 12891 12892 28
10314 12891 12893 28
10315 12891 12894 28
10316 12891 12895 28
10317 12896 12897 28
10318 12896 12898 28
10319 12896 12899 28
10320 12896 12900 28
10321 12901 12902 28
10322 12901 12903 28
10323 12901 12904 28
10324 12901 12905 28
10325 12906 12907 28
10326 12906 12908 28
10327 12906 12909 28
10328 12906 12910 28
10329 12911 12912 28
10330 12911 12913 28
10331 12911 12914 28
10332 12911 12915 28
10333 12916 12917 28
10334 12916 12918 28
10335 12916 12919 28
10336 12916 12920 28
10337 12921 12922 28
10338 12921 12923 28
10339 12921 12924 28
10340 12921 12925 28
10341 12926 12927 28
10342 12926 12928 28
10343 12926 12929 28
10344 12926 12930 28
10345 12931 12932 28
10346 12931 12933 28
10347 12931 12934 28
10348 12931 12935 28
10349 12936 12937 28
10350 12936 12938 28
10351 12936 12939 28
10352 12936 12940 28
10353 12941 12942 28
10354 12941 12943 28
10355 12941 12944 28
10356 12941 12945 28
10357 12946 12947 28
10358 12946 12948 28
10359 12946 12949 28
10360 12946 12950 28
10361 12951 12952 28
10362 12951 12953 28
10363 12951 12954 28
10364 12951 12955 28
10365 12956 12957 28
10366 12956 12958 28
10367 12956 12959 28
10368 12956 12960 28
10369 12961 12962 28
10370 12961 12963 28
10371 12961 12964 28
10372 12961 12965 28
10373 12966 12967 28
10374 12966 12968 28
10375 12966 12969 28
10376 12966 12970 28
10377 12971 12972 28
10378 12971 12973 28
10379 12971 12974 28
10380 12971 12975 28
10381 12976 12977 28
10382 12976 12978 28
10383 12976 12979 28
10384 12976 12980 28
10385 12981 12982 28
10386 12981 12983 28
10387 12981 12984 28
10388 12981 12985 28
10389 12986 12987 28
10390 12986 12988 28
10391 12986 12989 28
10392 12986 12990 28
10393 12991 12992 28
10394 12991 12993 28
10395 12991 12994 28
10396 12991 12995 28
10397 12996 12997 28
10398 12996 12998 28
10399 12996 12999 28
10400 12996 13000 28
10401 13001 13002 28
10402 13001 13003 28
10403 13001 13004 28
10404 13001 13005 28
10405 13006 13007 28
10406 13006 13008 28
10407 13006 13009 28
10408 13006 13010 28
10409 13011 13012 28
10410 13011 13013 28
10411 13011 13014 28
10412 13011 13015 28
10413 13016 13017 28
10414 13016 13018 28
10415 13016 13019 28
10416 13016 13020 28
10417 13021 13022 28
10418 13021 13023 28
10419 13021 13024 28
10420 13021 13025 28
10421 13026 13027 28
10422 13026 13028 28
10423 13026 13029 28
10424 13026 13030 28
10425 13031 13032 28
10426 13031 13033 28
10427 13031 13034 28
10428 13031 13035 28
10429 13036 13037 28
10430 13036 13038 28
10431 13036 13039 28
10432 13036 13040 28
10433 13041 13042 28
10434 13041 13043 28
10435 13041 13044 28
10436 13041 13045 28
10437 13046 13047 28
10438 13046 13048 28
10439 13046 13049 28
10440 13046 13050 28
10441 13051 13052 28
10442 13051 13053 28
10443 13051 13054 28
10444 13051 13055 28
10445 13056 13057 28
10446 13056 13058 28
10447 13056 13059 28
10448 13056 13060 28
10449 13061 13062 28
10450 13061 13063 28
10451 13061 13064 28
10452 13061 13065 28
10453 13066 13067 28
10454 13066 13068 28
10455 13066 13069 28
10456 13066 13070 28
10457 13071 13072 28
10458 13071 13073 28
10459 13071 13074 28
10460 13071 13075 28
10461 13076 13077 28
10462 13076 13078 28
10463 13076 13079 28
10464 13076 13080 28
10465 13081 13082 28
10466 13081 13083 28
10467 13081 13084 28
10468 13081 13085 28
10469 13086 13087 28
10470 13086 13088 28
10471 13086 13089 28
10472 13086 13090 28
10473 13091 13092 28
10474 13091 13093 28
10475 13091 13094 28
10476 13091 13095 28
10477 13096 13097 28
10478 13096 13098 28
10479 13096 13099 28
10480 13096 13100 28
10481 13101 13102 28
10482 13101 13103 28
10483 13101 13104 28
10484 13101 13105 28
10485 13106 13107 28
10486 13106 13108 28
10487 13106 13109 28
10488 13106 13110 28
10489 13111 13112 28
10490 13111 13113 28
10491 13111 13114 28
10492 13111 13115 28
10493 13116 13117 28
10494 13116 13118 28
10495 13116 13119 28
10496 13116 13120 28
10497 13121 13122 28
10498 13121 13123 28
10499 13121 13124 28
10500 13121 13125 28
10501 13126 13127 28
10502 13126 13128 28
10503 13126 13129 28
10504 13126 13130 28
10505 13131 13132 28
10506 13131 13133 28
10507 13131 13134 28
10508 13131 13135 28
10509 13136 13137 28
10510 13136 13138 28
10511 13136 13139 28
10512 13136 13140 28
10513 13141 13142 28
10514 13141 13143 28
10515 13141 13144 28
10516 13141 13145 28
10517 13146 13147 28
10518 13146 13148 28
10519 13146 13149 28
10520 13146 13150 28
10521 13151 13152 28
10522 13151 13153 28
10523 13151 13154 28
10524 13151 13155 28
10525 13156 13157 28
10526 13156 13158 28
10527 13156 13159 28
10528 13156 13160 28
10529 13161 13162 28
10530 13161 13163 28
10531 13161 13164 28
10532 13161 13165 28
10533 13166 13167 28
10534 13166 13168 28
10535 13166 13169 28
10536 13166 13170 28
10537 13171 13172 28
10538 13171 13173 28
10539 13171 13174 28
10540 13171 13175 28
10541 13176 13177 28
10542 13176 13178 28
10543 13176 13179 28
10544 13176 13180 28
10545 13181 13182 28
10546 13181 13183 28
10547 13181 13184 28
10548 13181 13185 28
10549 13186 13187 28
10550 13186 13188 28
10551 13186 13189 28
10552 13186 13190 28
10553 13191 13192 28
10554 13191 13193 28
10555 13191 13194 28
10556 13191 13195 28
10557 13196 13197 28
10558 13196 13198 28
10559 13196 13199 28
10560 13196 13200 28
10561 13201 13202 28
10562 13201 13203 28
10563 13201 13204 28
10564 13201 13205 28
10565 13206 13207 28
10566 13206 13208 28
10567 13206 13209 28
10568 13206 13210 28
10569 13211 13212 28
10570 13211 13213 28
10571 13211 13214 28
10572 13211 13215 28
10573 13216 13217 28
10574 13216 13218 28
10575 13216 13219 28
10576 13216 13220 28
10577 13221 13222 28
10578 13221 13223 28
10579 13221 13224 28
10580 13221 13225 28
10581 13226 13227 28
10582 13226 13228 28
10583 13226 13229 28
10584 13226 13230 28
10585 13231 13232 28
10586 13231 13233 28
10587 13231 13234 28
10588 13231 13235 28
10589 13236 13237 28
10590 13236 13238 28
10591 13236 13239 28
10592 13236 13240 28
10593 13241 13242 28
10594 13241 13243 28
10595 13241 13244 28
10596 13241 13245 28
10597 13246 13247 28
10598 13246 13248 28
10599 13246 13249 28
10600 13246 13250 28
10601 13251 13252 28
10602 13251 13253 28
10603 13251 13254 28
10604 13251 13255 28
10605 13256 13257 28
10606 13256 13258 28
10607 13256 13259 28
10608 13256 13260 28
10609 13261 13262 28
10610 13261 13263 28
10611 13261 13264 28
10612 13261 13265 28
10613 13266 13267 28
10614 13266 13268 28
10615 13266 13269 28
10616 13266 13270 28
10617 13271 13272 28
10618 13271 13273 28
10619 13271 13274 28
10620 13271 13275 28
10621 13276 13277 28
10622 13276 13278 28
10623 13276 13279 28
10624 13276 13280 28
10625 13281 13282 28
10626 13281 13283 28
10627 13281 13284 28
10628 13281 13285 28
10629 13286 13287 28
10630 13286 13288 28
10631 13286 13289 28
10632 13286 13290 28
10633 13291 13292 28
10634 13291 13293 28
10635 13291 13294 28
10636 13291 13295 28
10637 13296 13297 28
10638 13296 13298 28
10639 13296 13299 28
10640 13296 13300 28
10641 13301 13302 28
10642 13301 13303 28
10643 13301 13304 28
10644 13301 13305 28
10645 13306 13307 28
10646 13306 13308 28
10647 13306 13309 28
10648 13306 13310 28
10649 13311 13312 28
10650 13311 13313 28
10651 13311 13314 28
10652 13311 13315 28
10653 13316 13317 28
10654 13316 13318 28
10655 13316 13319 28
10656 13316 13320 28
10657 13321 13322 28
10658 13321 13323 28
10659 13321 13324 28
10660 13321 13325 28
10661 13326 13327 28
10662 13326 13328 28
10663 13326 13329 28
10664 13326 13330 28
10665 13331 13332 28
10666 13331 13333 28
10667 13331 13334 28
10668 13331 13335 28
10669 13336 13337 28
10670 13336 13338 28
10671 13336 13339 28
10672 13336 13340 28
10673 13341 13342 28
10674 13341 13343 28
10675 13341 13344 28
10676 13341 13345 28
10677 13346 13347 28
10678 13346 13348 28
10679 13346 13349 28
10680 13346 13350 28
10681 13351 13352 28
10682 13351 13353 28
10683 13351 13354 28
10684 13351 13355 28
10685 13356 13357 28
10686 13356 13358 28
10687 13356 13359 28
10688 13356 13360 28
10689 13361 13362 28
10690 13361 13363 28
10691 13361 13364 28
10692 13361 13365 28
10693 13366 13367 28
10694 13366 13368 28
10695 13366 13369 28
10696 13366 13370 28
10697 13371 13372 28
10698 13371 13373 28
10699 13371 13374 28
10700 13371 13375 28
10701 13376 13377 28
10702 13376 13378 28
10703 13376 13379 28
10704 13376 13380 28
10705 13381 13382 28
10706 13381 13383 28
10707 13381 13384 28
10708 13381 13385 28
10709 13386 13387 28
10710 13386 13388 28
10711 13386 13389 28
10712 13386 13390 28
10713 13391 13392 28
10714 13391 13393 28
10715 13391 13394 28
10716 13391 13395 28
10717 13396 13397 28
10718 13396 13398 28
10719 13396 13399 28
10720 13396 13400 28
10721 13401 13402 28
10722 13401 13403 28
10723 13401 13404 28
10724 13401 13405 28
10725 13406 13407 28
10726 13406 13408 28
10727 13406 13409 28
10728 13406 13410 28
10729 13411 13412 28
10730 13411 13413 28
10731 13411 13414 28
10732 13411 13415 28
10733 13416 13417 28
10734 13416 13418 28
10735 13416 13419 28
10736 13416 13420 28
10737 13421 13422 28
10738 13421 13423 28
10739 13421 13424 28
10740 13421 13425 28
10741 13426 13427 28
10742 13426 13428 28
10743 13426 13429 28
10744 13426 13430 28
10745 13431 13432 28
10746 13431 13433 28
10747 13431 13434 28
10748 13431 13435 28
10749 13436 13437 28
10750 13436 13438 28
10751 13436 13439 28
10752 13436 13440 28
10753 13441 13442 28
10754 13441 13443 28
10755 13441 13444 28
10756 13441 13445 28
10757 13446 13447 28
10758 13446 13448 28
10759 13446 13449 28
10760 13446 13450 28
10761 13451 13452 28
10762 13451 13453 28
10763 13451 13454 28
10764 13451 13455 28
10765 13456 13457 28
10766 13456 13458 28
10767 13456 13459 28
10768 13456 13460 28
10769 13461 13462 28
10770 13461 13463 28
10771 13461 13464 28
10772 13461 13465 28
10773 13466 13467 28
10774 13466 13468 28
10775 13466 13469 28
10776 13466 13470 28
10777 13471 13472 28
10778 13471 13473 28
10779 13471 13474 28
10780 13471 13475 28
10781 13476 13477 28
10782 13476 13478 28
10783 13476 13479 28
10784 13476 13480 28
10785 13481 13482 28
10786 13481 13483 28
10787 13481 13484 28
10788 13481 13485 28
10789 13486 13487 28
10790 13486 13488 28
10791 13486 13489 28
10792 13486 13490 28
10793 13491 13492 28
10794 13491 13493 28
10795 13491 13494 28
10796 13491 13495 28
10797 13496 13497 28
10798 13496 13498 28
10799 13496 13499 28
10800 13496 13500 28
10801 13501 13502 28
10802 13501 13503 28
10803 13501 13504 28
10804 13501 13505 28
10805 13506 13507 28
10806 13506 13508 28
10807 13506 13509 28
10808 13506 13510 28
10809 13511 13512 28
10810 13511 13513 28
10811 13511 13514 28
10812 13511 13515 28
10813 13516 13517 28
10814 13516 13518 28
10815 13516 13519 28
10816 13516 13520 28
10817 13521 13522 28
10818 13521 13523 28
10819 13521 13524 28
10820 13521 13525 28
10821 13526 13527 28
10822 13526 13528 28
10823 13526 13529 28
10824 13526 13530 28
10825 13531 13532 28
10826 13531 13533 28
10827 13531 13534 28
10828 13531 13535 28
10829 13536 13537 28
10830 13536 13538 28
10831 13536 13539 28
10832 13536 13540 28
10833 13541 13542 28
10834 13541 13543 28
10835 13541 13544 28
10836 13541 13545 28
10837 13546 13547 28
10838 13546 13548 28
10839 13546 13549 28
10840 13546 13550 28
10841 13551 13552 28
10842 13551 13553 28
10843 13551 13554 28
10844 13551 13555 28
10845 13556 13557 28
10846 13556 13558 28
10847 13556 13559 28
10848 13556 13560 28
10849 13561 13562 28
10850 13561 13563 28
10851 13561 13564 28
10852 13561 13565 28
10853 13566 13567 28
10854 13566 13568 28
10855 13566 13569 28
10856 13566 13570 28
10857 13571 13572 28
10858 13571 13573 28
10859 13571 13574 28
10860 13571 13575 28
10861 13576 13577 28
10862 13576 13578 28
10863 13576 13579 28
10864 13576 13580 28
10865 13581 13582 28
10866 13581 13583 28
10867 13581 13584 28
10868 13581 13585 28
10869 13586 13587 28
10870 13586 13588 28
10871 13586 13589 28
10872 13586 13590 28
10873 13591 13592 28
10874 13591 13593 28
10875 13591 13594 28
10876 13591 13595 28
10877 13596 13597 28
10878 13596 13598 28
10879 13596 13599 28
10880 13596 13600 28
10881 13601 13602 28
10882 13601 13603 28
10883 13601 13604 28
10884 13601 13605 28
10885 13606 13607 28
10886 13606 13608 28
10887 13606 13609 28
10888 13606 13610 28
10889 13611 13612 28
10890 13611 13613 28
10891 13611 13614 28
10892 13611 13615 28
10893 13616 13617 28
10894 13616 13618 28
10895 13616 13619 28
10896 13616 13620 28
10897 13621 13622 28
10898 13621 13623 28
10899 13621 13624 28
10900 13621 13625 28
10901 13626 13627 28
10902 13626 13628 28
10903 13626 13629 28
10904 13626 13630 28
10905 13631 13632 28
10906 13631 13633 28
10907 13631 13634 28
10908 13631 13635 28
10909 13636 13637 28
10910 13636 13638 28
10911 13636 13639 28
10912 13636 13640 28
10913 13641 13642 28
10914 13641 13643 28
10915 13641 13644 28
10916 13641 13645 28
10917 13646 13647 28
10918 13646 13648 28
10919 13646 13649 28
10920 13646 13650 28
10921 13651 13652 28
10922 13651 13653 28
10923 13651 13654 28
10924 13651 13655 28
10925 13656 13657 28
10926 13656 13658 28
10927 13656 13659 28
10928 13656 13660 28
10929 13661 13662 28
10930 13661 13663 28
10931 13661 13664 28
10932 13661 13665 28
10933 13666 13667 28
10934 13666 13668 28
10935 13666 13669 28
10936 13666 13670 28
10937 13671 13672 28
10938 13671 13673 28
10939 13671 13674 28
10940 13671 13675 28
10941 13676 13677 28
10942 13676 13678 28
10943 13676 13679 28
10944 13676 13680 28
10945 13681 13682 28
10946 13681 13683 28
10947 13681 13684 28
10948 13681 13685 28
10949 13686 13687 28
10950 13686 13688 28
10951 13686 13689 28
10952 13686 13690 28
10953 13691 13692 28
10954 13691 13693 28
10955 13691 13694 28
10956 13691 13695 28
10957 13696 13697 28
10958 13696 13698 28
10959 13696 13699 28
10960 13696 13700 28
10961 13701 13702 28
10962 13701 13703 28
10963 13701 13704 28
10964 13701 13705 28
10965 13706 13707 28
10966 13706 13708 28
10967 13706 13709 28
10968 13706 13710 28
10969 13711 13712 28
10970 13711 13713 28
10971 13711 13714 28
10972 13711 13715 28
10973 13716 13717 28
10974 13716 13718 28
10975 13716 13719 28
10976 13716 13720 28
10977 13721 13722 28
10978 13721 13723 28
10979 13721 13724 28
10980 13721 13725 28
10981 13726 13727 28
10982 13726 13728 28
10983 13726 13729 28
10984 13726 13730 28
10985 13731 13732 28
10986 13731 13733 28
10987 13731 13734 28
10988 13731 13735 28
10989 13736 13737 28
10990 13736 13738 28
10991 13736 13739 28
10992 13736 13740 28
10993 13741 13742 28
10994 13741 13743 28
10995 13741 13744 28
10996 13741 13745 28
10997 13746 13747 28
10998 13746 13748 28
10999 13746 13749 28
11000 13746 13750 28
11001 13751 13752 28
11002 13751 13753 28
11003 13751 13754 28
11004 13751 13755 28
11005 13756 13757 28
11006 13756 13758 28
11007 13756 13759 28
11008 13756 13760 28
11009 13761 13762 28
11010 13761 13763 28
11011 13761 13764 28
11012 13761 13765 28
11013 13766 13767 28
11014 13766 13768 28
11015 13766 13769 28
11016 13766 13770 28
11017 13771 13772 28
11018 13771 13773 28
11019 13771 13774 28
11020 13771 13775 28
11021 13776 13777 28
11022 13776 13778 28
11023 13776 13779 28
11024 13776 13780 28
11025 13781 13782 28
11026 13781 13783 28
11027 13781 13784 28
11028 13781 13785 28
11029 13786 13787 28
11030 13786 13788 28
11031 13786 13789 28
11032 13786 13790 28
11033 13791 13792 28
11034 13791 13793 28
11035 13791 13794 28
11036 13791 13795 28
11037 13796 13797 28
11038 13796 13798 28
11039 13796 13799 28
11040 13796 13800 28
11041 13801 13802 28
11042 13801 13803 28
11043 13801 13804 28
11044 13801 13805 28
11045 13806 13807 28
11046 13806 13808 28
11047 13806 13809 28
11048 13806 13810 28
11049 13811 13812 28
11050 13811 13813 28
11051 13811 13814 28
11052 13811 13815 28
11053 13816 13817 28
11054 13816 13818 28
11055 13816 13819 28
11056 13816 13820 28
11057 13821 13822 28
11058 13821 13823 28
11059 13821 13824 28
11060 13821 13825 28
11061 13826 13827 28
11062 13826 13828 28
11063 13826 13829 28
11064 13826 13830 28
11065 13831 13832 28
11066 13831 13833 28
11067 13831 13834 28
11068 13831 13835 28
11069 13836 13837 28
11070 13836 13838 28
11071 13836 13839 28
11072 13836 13840 28
11073 13841 13842 28
11074 13841 13843 28
11075 13841 13844 28
11076 13841 13845 28
11077 13846 13847 28
11078 13846 13848 28
11079 13846 13849 28
11080 13846 13850 28
11081 13851 13852 28
11082 13851 13853 28
11083 13851 13854 28
11084 13851 13855 28
11085 13856 13857 28
11086 13856 13858 28
11087 13856 13859 28
11088 13856 13860 28
11089 13861 13862 28
11090 13861 13863 28
11091 13861 13864 28
11092 13861 13865 28
11093 13866 13867 28
11094 13866 13868 28
11095 13866 13869 28
11096 13866 13870 28
11097 13871 13872 28
11098 13871 13873 28
11099 13871 13874 28
11100 13871 13875 28
11101 13876 13877 28
11102 13876 13878 28
11103 13876 13879 28
11104 13876 13880 28
11105 13881 13882 28
11106 13881 13883 28
11107 13881 13884 28
11108 13881 13885 28
11109 13886 13887 28
11110 13886 13888 28
11111 13886 13889 28
11112 13886 13890 28
11113 13891 13892 28
11114 13891 13893 28
11115 13891 13894 28
11116 13891 13895 28
11117 13896 13897 28
11118 13896 13898 28
11119 13896 13899 28
11120 13896 13900 28
11121 13901 13902 28
11122 13901 13903 28
11123 13901 13904 28
11124 13901 13905 28
11125 13906 13907 28
11126 13906 13908 28
11127 13906 13909 28
11128 13906 13910 28
11129 13911 13912 28
11130 13911 13913 28
11131 13911 13914 28
11132 13911 13915 28
11133 13916 13917 28
11134 13916 13918 28
11135 13916 13919 28
11136 13916 13920 28
11137 13921 13922 28
11138 13921 13923 28
11139 13921 13924 28
11140 13921 13925 28
11141 13926 13927 28
11142 13926 13928 28
11143 13926 13929 28
11144 13926 13930 28
11145 13931 13932 28
11146 13931 13933 28
11147 13931 13934 28
11148 13931 13935 28
11149 13936 13937 28
11150 13936 13938 28
11151 13936 13939 28
11152 13936 13940 28
11153 13941 13942 28
11154 13941 13943 28
11155 13941 13944 28
11156 13941 13945 28
11157 13946 13947 28
11158 13946 13948 28
11159 13946 13949 28
11160 13946 13950 28
11161 13951 13952 28
11162 13951 13953 28
11163 13951 13954 28
11164 13951 13955 28
11165 13956 13957 28
11166 13956 13958 28
11167 13956 13959 28
11168 13956 13960 28
11169 13961 13962 28
11170 13961 13963 28
11171 13961 13964 28
11172 13961 13965 28
11173 13966 13967 28
11174 13966 13968 28
11175 13966 13969 28
11176 13966 13970 28
11177 13971 13972 28
11178 13971 13973 28
11179 13971 13974 28
11180 13971 13975 28
11181 13976 13977 28
11182 13976 13978 28
11183 13976 13979 28
11184 13976 13980 28
11185 13981 13982 28
11186 13981 13983 28
11187 13981 13984 28
11188 13981 13985 28
11189 13986 13987 28
11190 13986 13988 28
11191 13986 13989 28
11192 13986 13990 28
11193 13991 13992 28
11194 13991 13993 28
11195 13991 13994 28
11196 13991 13995 28
11197 13996 13997 28
11198 13996 13998 28
11199 13996 13999 28
11200 13996 14000 28
11201 14001 14002 28
11202 14001 14003 28
11203 14001 14004 28
11204 14001 14005 28
11205 14006 14007 28
11206 14006 14008 28
11207 14006 14009 28
11208 14006 14010 28
11209 14011 14012 28
11210 14011 14013 28
11211 14011 14014 28
11212 14011 14015 28
11213 14016 14017 28
11214 14016 14018 28
11215 14016 14019 28
11216 14016 14020 28
11217 14021 14022 28
11218 14021 14023 28
11219 14021 14024 28
11220 14021 14025 28
11221 14026 14027 28
11222 14026 14028 28
11223 14026 14029 28
11224 14026 14030 28
11225 14031 14032 28
11226 14031 14033 28
11227 14031 14034 28
11228 14031 14035 28
11229 14036 14037 28
11230 14036 14038 28
11231 14036 14039 28
11232 14036 14040 28
11233 14041 14042 28
11234 14041 14043 28
11235 14041 14044 28
11236 14041 14045 28
11237 14046 14047 28
11238 14046 14048 28
11239 14046 14049 28
11240 14046 14050 28
11241 14051 14052 28
11242 14051 14053 28
11243 14051 14054 28
11244 14051 14055 28
11245 14056 14057 28
11246 14056 14058 28
11247 14056 14059 28
11248 14056 14060 28
11249 14061 14062 28
11250 14061 14063 28
11251 14061 14064 28
11252 14061 14065 28
11253 14066 14067 28
11254 14066 14068 28
11255 14066 14069 28
11256 14066 14070 28
11257 14071 14072 28
11258 14071 14073 28
11259 14071 14074 28
11260 14071 14075 28
11261 14076 14077 28
11262 14076 14078 28
11263 14076 14079 28
11264 14076 14080 28
11265 14081 14082 28
11266 14081 14083 28
11267 14081 14084 28
11268 14081 14085 28
11269 14086 14087 28
11270 14086 14088 28
11271 14086 14089 28
11272 14086 14090 28
11273 14091 14092 28
11274 14091 14093 28
11275 14091 14094 28
11276 14091 14095 28
11277 14096 14097 28
11278 14096 14098 28
11279 14096 14099 28
11280 14096 14100 28
11281 14101 14102 28
11282 14101 14103 28
11283 14101 14104 28
11284 14101 14105 28
11285 14106 14107 28
11286 14106 14108 28
11287 14106 14109 28
11288 14106 14110 28
11289 14111 14112 28
11290 14111 14113 28
11291 14111 14114 28
11292 14111 14115 28
11293 14116 14117 28
11294 14116 14118 28
11295 14116 14119 28
11296 14116 14120 28
11297 14121 14122 28
11298 14121 14123 28
11299 14121 14124 28
11300 14121 14125 28
11301 14126 14127 28
11302 14126 14128 28
11303 14126 14129 28
11304 14126 14130 28
11305 14131 14132 28
11306 14131 14133 28
11307 14131 14134 28
11308 14131 14135 28
11309 14136 14137 28
11310 14136 14138 28
11311 14136 14139 28
11312 14136 14140 28
11313 14141 14142 28
11314 14141 14143 28
11315 14141 14144 28
11316 14141 14145 28
11317 14146 14147 28
11318 14146 14148 28
11319 14146 14149 28
11320 14146 14150 28
11321 14151 14152 28
11322 14151 14153 28
11323 14151 14154 28
11324 14151 14155 28
11325 14156 14157 28
11326 14156 14158 28
11327 14156 14159 28
11328 14156 14160 28
11329 14161 14162 28
11330 14161 14163 28
11331 14161 14164 28
11332 14161 14165 28
11333 14166 14167 28
11334 14166 14168 28
11335 14166 14169 28
11336 14166 14170 28
11337 14171 14172 28
11338 14171 14173 28
11339 14171 14174 28
11340 14171 14175 28
11341 14176 14177 28
11342 14176 14178 28
11343 14176 14179 28
11344 14176 14180 28
11345 14181 14182 28
11346 14181 14183 28
11347 14181 14184 28
11348 14181 14185 28
11349 14186 14187 28
11350 14186 14188 28
11351 14186 14189 28
11352 14186 14190 28
11353 14191 14192 28
11354 14191 14193 28
11355 14191 14194 28
11356 14191 14195 28
11357 14196 14197 28
11358 14196 14198 28
11359 14196 14199 28
11360 14196 14200 28
11361 14201 14202 28
11362 14201 14203 28
11363 14201 14204 28
11364 14201 14205 28
11365 14206 14207 28
11366 14206 14208 28
11367 14206 14209 28
11368 14206 14210 28
11369 14211 14212 28
11370 14211 14213 28
11371 14211 14214 28
11372 14211 14215 28
11373 14216 14217 28
11374 14216 14218 28
11375 14216 14219 28
11376 14216 14220 28
11377 14221 14222 28
11378 14221 14223 28
11379 14221 14224 28
11380 14221 14225 28
11381 14226 14227 28
11382 14226 14228 28
11383 14226 14229 28
11384 14226 14230 28
11385 14231 14232 28
11386 14231 14233 28
11387 14231 14234 28
11388 14231 14235 28
11389 14236 14237 28
11390 14236 14238 28
11391 14236 14239 28
11392 14236 14240 28
11393 14241 14242 28
11394 14241 14243 28
11395 14241 14244 28
11396 14241 14245 28
11397 14246 14247 28
11398 14246 14248 28
11399 14246 14249 28
11400 14246 14250 28
11401 14251 14252 28
11402 14251 14253 28
11403 14251 14254 28
11404 14251 14255 28
11405 14256 14257 28
11406 14256 14258 28
11407 14256 14259 28
11408 14256 14260 28
11409 14261 14262 28
11410 14261 14263 28
11411 14261 14264 28
11412 14261 14265 28
11413 14266 14267 28
11414 14266 14268 28
11415 14266 14269 28
11416 14266 14270 28
11417 14271 14272 28
11418 14271 14273 28
11419 14271 14274 28
11420 14271 14275 28
11421 14276 14277 28
11422 14276 14278 28
11423 14276 14279 28
11424 14276 14280 28
11425 14281 14282 28
11426 14281 14283 28
11427 14281 14284 28
11428 14281 14285 28
11429 14286 14287 28
11430 14286 14288 28
11431 14286 14289 28
11432 14286 14290 28
11433 14291 14292 28
11434 14291 14293 28
11435 14291 14294 28
11436 14291 14295 28
11437 14296 14297 28
11438 14296 14298 28
11439 14296 14299 28
11440 14296 14300 28
11441 14301 14302 28
11442 14301 14303 28
11443 14301 14304 28
11444 14301 14305 28
11445 14306 14307 28
11446 14306 14308 28
11447 14306 14309 28
11448 14306 14310 28
11449 14311 14312 28
11450 14311 14313 28
11451 14311 14314 28
11452 14311 14315 28
11453 14316 14317 28
11454 14316 14318 28
11455 14316 14319 28
11456 14316 14320 28
11457 14321 14322 28
11458 14321 14323 28
11459 14321 14324 28
11460 14321 14325 28
11461 14326 14327 28
11462 14326 14328 28
11463 14326 14329 28
11464 14326 14330 28
11465 14331 14332 28
11466 14331 14333 28
11467 14331 14334 28
11468 14331 14335 28
11469 14336 14337 28
11470 14336 14338 28
11471 14336 14339 28
11472 14336 14340 28
11473 14341 14342 28
11474 14341 14343 28
11475 14341 14344 28
11476 14341 14345 28
11477 14346 14347 28
11478 14346 14348 28
11479 14346 14349 28
11480 14346 14350 28
11481 14351 14352 28
11482 14351 14353 28
11483 14351 14354 28
11484 14351 14355 28
11485 14356 14357 28
11486 14356 14358 28
11487 14356 14359 28
11488 14356 14360 28
11489 14361 14362 28
11490 14361 14363 28
11491 14361 14364 28
11492 14361 14365 28
11493 14366 14367 28
11494 14366 14368 28
11495 14366 14369 28
11496 14366 14370 28
11497 14371 14372 28
11498 14371 14373 28
11499 14371 14374 28
11500 14371 14375 28
11501 14376 14377 28
11502 14376 14378 28
11503 14376 14379 28
11504 14376 14380 28
11505 14381 14382 28
11506 14381 14383 28
11507 14381 14384 28
11508 14381 14385 28
11509 14386 14387 28
11510 14386 14388 28
11511 14386 14389 28
11512 14386 14390 28
11513 14391 14392 28
11514 14391 14393 28
11515 14391 14394 28
11516 14391 14395 28
11517 14396 14397 28
11518 14396 14398 28
11519 14396 14399 28
11520 14396 14400 28
11521 14401 14402 28
11522 14401 14403 28
11523 14401 14404 28
11524 14401 14405 28
11525 14406 14407 28
11526 14406 14408 28
11527 14406 14409 28
11528 14406 14410 28
11529 14411 14412 28
11530 14411 14413 28
11531 14411 14414 28
11532 14411 14415 28
11533 14416 14417 28
11534 14416 14418 28
11535 14416 14419 28
11536 14416 14420 28
11537 14421 14422 28
11538 14421 14423 28
11539 14421 14424 28
11540 14421 14425 28
11541 14426 14427 28
11542 14426 14428 28
11543 14426 14429 28
11544 14426 14430 28
11545 14431 14432 28
11546 14431 14433 28
11547 14431 14434 28
11548 14431 14435 28
11549 14436 14437 28
11550 14436 14438 28
11551 14436 14439 28
11552 14436 14440 28
11553 14441 14442 28
11554 14441 14443 28
11555 14441 14444 28
11556 14441 14445 28
11557 14446 14447 28
11558 14446 14448 28
11559 14446 14449 28
11560 14446 14450 28
11561 14451 14452 28
11562 14451 14453 28
11563 14451 14454 28
11564 14451 14455 28
11565 14456 14457 28
11566 14456 14458 28
11567 14456 14459 28
11568 14456 14460 28
11569 14461 14462 28
11570 14461 14463 28
11571 14461 14464 28
11572 14461 14465 28
11573 14466 14467 28
11574 14466 14468 28
11575 14466 14469 28
11576 14466 14470 28
11577 14471 14472 28
11578 14471 14473 28
11579 14471 14474 28
11580 14471 14475 28
11581 14476 14477 28
11582 14476 14478 28
11583 14476 14479 28
11584 14476 14480 28
11585 14481 14482 28
11586 14481 14483 28
11587 14481 14484 28
11588 14481 14485 28
11589 14486 14487 28
11590 14486 14488 28
11591 14486 14489 28
11592 14486 14490 28
11593 14491 14492 28
11594 14491 14493 28
11595 14491 14494 28
11596 14491 14495 28
11597 14496 14497 28
11598 14496 14498 28
11599 14496 14499 28
11600 14496 14500 28
11601 14501 14502 28
11602 14501 14503 28
11603 14501 14504 28
11604 14501 14505 28
11605 14506 14507 28
11606 14506 14508 28
11607 14506 14509 28
11608 14506 14510 28
11609 14511 14512 28
11610 14511 14513 28
11611 14511 14514 28
11612 14511 14515 28
11613 14516 14517 28
11614 14516 14518 28
11615 14516 14519 28
11616 14516 14520 28
11617 14521 14522 28
11618 14521 14523 28
11619 14521 14524 28
11620 14521 14525 28
11621 14526 14527 28
11622 14526 14528 28
11623 14526 14529 28
11624 14526 14530 28
11625 14531 14532 28
11626 14531 14533 28
11627 14531 14534 28
11628 14531 14535 28
11629 14536 14537 28
11630 14536 14538 28
11631 14536 14539 28
11632 14536 14540 28
11633 14541 14542 28
11634 14541 14543 28
11635 14541 14544 28
11636 14541 14545 28
11637 14546 14547 28
11638 14546 14548 28
11639 14546 14549 28
11640 14546 14550 28
11641 14551 14552 28
11642 14551 14553 28
11643 14551 14554 28
11644 14551 14555 28
11645 14556 14557 28
11646 14556 14558 28
11647 14556 14559 28
11648 14556 14560 28
11649 14561 14562 28
11650 14561 14563 28
11651 14561 14564 28
11652 14561 14565 28
11653 14566 14567 28
11654 14566 14568 28
11655 14566 14569 28
11656 14566 14570 28
11657 14571 14572 28
11658 14571 14573 28
11659 14571 14574 28
11660 14571 14575 28
11661 14576 14577 28
11662 14576 14578 28
11663 14576 14579 28
11664 14576 14580 28
11665 14581 14582 28
11666 14581 14583 28
11667 14581 14584 28
11668 14581 14585 28
11669 14586 14587 28
11670 14586 14588 28
11671 14586 14589 28
11672 14586 14590 28
11673 14591 14592 28
11674 14591 14593 28
11675 14591 14594 28
11676 14591 14595 28
11677 14596 14597 28
11678 14596 14598 28
11679 14596 14599 28
11680 14596 14600 28
11681 14601 14602 28
11682 14601 14603 28
11683 14601 14604 28
11684 14601 14605 28
11685 14606 14607 28
11686 14606 14608 28
11687 14606 14609 28
11688 14606 14610 28
11689 14611 14612 28
11690 14611 14613 28
11691 14611 14614 28
11692 14611 14615 28
11693 14616 14617 28
11694 14616 14618 28
11695 14616 14619 28
11696 14616 14620 28
11697 14621 14622 28
11698 14621 14623 28
11699 14621 14624 28
11700 14621 14625 28
11701 14626 14627 28
11702 14626 14628 28
11703 14626 14629 28
11704 14626 14630 28
11705 14631 14632 28
11706 14631 14633 28
11707 14631 14634 28
11708 14631 14635 28
11709 14636 14637 28
11710 14636 14638 28
11711 14636 14639 28
11712 14636 14640 28
11713 14641 14642 28
11714 14641 14643 28
11715 14641 14644 28
11716 14641 14645 28
11717 14646 14647 28
11718 14646 14648 28
11719 14646 14649 28
11720 14646 14650 28
11721 14651 14652 28
11722 14651 14653 28
11723 14651 14654 28
11724 14651 14655 28
11725 14656 14657 28
11726 14656 14658 28
11727 14656 14659 28
11728 14656 14660 28
11729 14661 14662 28
11730 14661 14663 28
11731 14661 14664 28
11732 14661 14665 28
11733 14666 14667 28
11734 14666 14668 28
11735 14666 14669 28
11736 14666 14670 28
11737 14671 14672 28
11738 14671 14673 28
11739 14671 14674 28
11740 14671 14675 28
11741 14676 14677 28
11742 14676 14678 28
11743 14676 14679 28
11744 14676 14680 28
11745 14681 14682 28
11746 14681 14683 28
11747 14681 14684 28
11748 14681 14685 28
11749 14686 14687 28
11750 14686 14688 28
11751 14686 14689 28
11752 14686 14690 28
11753 14691 14692 28
11754 14691 14693 28
11755 14691 14694 28
11756 14691 14695 28
11757 14696 14697 28
11758 14696 14698 28
11759 14696 14699 28
11760 14696 14700 28
11761 14701 14702 28
11762 14701 14703 28
11763 14701 14704 28
11764 14701 14705 28
11765 14706 14707 28
11766 14706 14708 28
11767 14706 14709 28
11768 14706 14710 28
11769 14711 14712 28
11770 14711 14713 28
11771 14711 14714 28
11772 14711 14715 28
11773 14716 14717 28
11774 14716 14718 28
11775 14716 14719 28
11776 14716 14720 28
11777 14721 14722 28
11778 14721 14723 28
11779 14721 14724 28
11780 14721 14725 28
11781 14726 14727 28
11782 14726 14728 28
11783 14726 14729 28
11784 14726 14730 28
11785 14731 14732 28
11786 14731 14733 28
11787 14731 14734 28
11788 14731 14735 28
11789 14736 14737 28
11790 14736 14738 28
11791 14736 14739 28
11792 14736 14740 28
11793 14741 14742 28
11794 14741 14743 28
11795 14741 14744 28
11796 14741 14745 28
11797 14746 14747 28
11798 14746 14748 28
11799 14746 14749 28
11800 14746 14750 28
11801 14751 14752 28
11802 14751 14753 28
11803 14751 14754 28
11804 14751 14755 28
11805 14756 14757 28
11806 14756 14758 28
11807 14756 14759 28
11808 14756 14760 28
11809 14761 14762 28
11810 14761 14763 28
11811 14761 14764 28
11812 14761 14765 28
11813 14766 14767 28
11814 14766 14768 28
11815 14766 14769 28
11816 14766 14770 28
11817 14771 14772 28
11818 14771 14773 28
11819 14771 14774 28
11820 14771 14775 28
11821 14776 14777 28
11822 14776 14778 28
11823 14776 14779 28
11824 14776 14780 28
11825 14781 14782 28
11826 14781 14783 28
11827 14781 14784 28
11828 14781 14785 28
11829 14786 14787 28
11830 14786 14788 28
11831 14786 14789 28
11832 14786 14790 28
11833 14791 14792 28
11834 14791 14793 28
11835 14791 14794 28
11836 14791 14795 28
11837 14796 14797 28
11838 14796 14798 28
11839 14796 14799 28
11840 14796 14800 28
11841 14801 14802 28
11842 14801 14803 28
11843 14801 14804 28
11844 14801 14805 28
11845 14806 14807 28
11846 14806 14808 28
11847 14806 14809 28
11848 14806 14810 28
11849 14811 14812 28
11850 14811 14813 28
11851 14811 14814 28
11852 14811 14815 28
11853 14816 14817 28
11854 14816 14818 28
11855 14816 14819 28
11856 14816 14820 28
11857 14821 14822 28
11858 14821 14823 28
11859 14821 14824 28
11860 14821 14825 28
11861 14826 14827 28
11862 14826 14828 28
11863 14826 14829 28
11864 14826 14830 28
11865 14831 14832 28
11866 14831 14833 28
11867 14831 14834 28
11868 14831 14835 28
11869 14836 14837 28
11870 14836 14838 28
11871 14836 14839 28
11872 14836 14840 28
11873 14841 14842 28
11874 14841 14843 28
11875 14841 14844 28
11876 14841 14845 28
11877 14846 14847 28
11878 14846 14848 28
11879 14846 14849 28
11880 14846 14850 28
11881 14851 14852 28
11882 14851 14853 28
11883 14851 14854 28
11884 14851 14855 28
11885 14856 14857 28
11886 14856 14858 28
11887 14856 14859 28
11888 14856 14860 28
11889 14861 14862 28
11890 14861 14863 28
11891 14861 14864 28
11892 14861 14865 28
11893 14866 14867 28
11894 14866 14868 28
11895 14866 14869 28
11896 14866 14870 28
11897 14871 14872 28
11898 14871 14873 28
11899 14871 14874 28
11900 14871 14875 28
11901 14876 14877 28
11902 14876 14878 28
11903 14876 14879 28
11904 14876 14880 28
11905 14881 14882 28
11906 14881 14883 28
11907 14881 14884 28
11908 14881 14885 28
11909 14886 14887 28
11910 14886 14888 28
11911 14886 14889 28
11912 14886 14890 28
11913 14891 14892 28
11914 14891 14893 28
11915 14891 14894 28
11916 14891 14895 28
11917 14896 14897 28
11918 14896 14898 28
11919 14896 14899 28
11920 14896 14900 28
11921 14901 14902 28
11922 14901 14903 28
11923 14901 14904 28
11924 14901 14905 28
11925 14906 14907 28
11926 14906 14908 28
11927 14906 14909 28
11928 14906 14910 28
11929 14911 14912 28
11930 14911 14913 28
11931 14911 14914 28
11932 14911 14915 28
11933 14916 14917 28
11934 14916 14918 28
11935 14916 14919 28
11936 14916 14920 28
11937 14921 14922 28
11938 14921 14923 28
11939 14921 14924 28
11940 14921 14925 28
11941 14926 14927 28
11942 14926 14928 28
11943 14926 14929 28
11944 14926 14930 28
11945 14931 14932 28
11946 14931 14933 28
11947 14931 14934 28
11948 14931 14935 28
11949 14936 14937 28
11950 14936 14938 28
11951 14936 14939 28
11952 14936 14940 28
11953 14941 14942 28
11954 14941 14943 28
11955 14941 14944 28
11956 14941 14945 28
11957 14946 14947 28
11958 14946 14948 28
11959 14946 14949 28
11960 14946 14950 28
11961 14951 14952 28
11962 14951 14953 28
11963 14951 14954 28
11964 14951 14955 28
11965 14956 14957 28
11966 14956 14958 28
11967 14956 14959 28
11968 14956 14960 28
11969 14961 14962 28
11970 14961 14963 28
11971 14961 14964 28
11972 14961 14965 28
11973 14966 14967 28
11974 14966 14968 28
11975 14966 14969 28
11976 14966 14970 28
11977 14971 14972 28
11978 14971 14973 28
11979 14971 14974 28
11980 14971 14975 28
11981 14976 14977 28
11982 14976 14978 28
11983 14976 14979 28
11984 14976 14980 28
11985 14981 14982 28
11986 14981 14983 28
11987 14981 14984 28
11988 14981 14985 28
11989 14986 14987 28
11990 14986 14988 28
11991 14986 14989 28
11992 14986 14990 28
11993 14991 14992 28
11994 14991 14993 28
11995 14991 14994 28
11996 14991 14995 28
11997 14996 14997 28
11998 14996 14998 28
11999 14996 14999 28
12000 14996 15000 28
12001 15001 15002 28
12002 15001 15003 28
12003 15001 15004 28
12004 15001 15005 28
12005 15006 15007 28
12006 15006 15008 28
12007 15006 15009 28
12008 15006 15010 28
12009 15011 15012 28
12010 15011 15013 28
12011 15011 15014 28
12012 15011 15015 28
12013 15016 15017 28
12014 15016 15018 28
12015 15016 15019 28
12016 15016 15020 28
12017 15021 15022 28
12018 15021 15023 28
12019 15021 15024 28
12020 15021 15025 28
12021 15026 15027 28
12022 15026 15028 28
12023 15026 15029 28
12024 15026 15030 28
12025 15031 15032 28
12026 15031 15033 28
12027 15031 15034 28
12028 15031 15035 28
12029 15036 15037 28
12030 15036 15038 28
12031 15036 15039 28
12032 15036 15040 28
12033 15041 15042 28
12034 15041 15043 28
12035 15041 15044 28
12036 15041 15045 28
12037 15046 15047 28
12038 15046 15048 28
12039 15046 15049 28
12040 15046 15050 28
12041 15051 15052 28
12042 15051 15053 28
12043 15051 15054 28
12044 15051 15055 28
12045 15056 15057 28
12046 15056 15058 28
12047 15056 15059 28
12048 15056 15060 28
12049 15061 15062 28
12050 15061 15063 28
12051 15061 15064 28
12052 15061 15065 28
12053 15066 15067 28
12054 15066 15068 28
12055 15066 15069 28
12056 15066 15070 28
12057 15071 15072 28
12058 15071 15073 28
12059 15071 15074 28
12060 15071 15075 28
12061 15076 15077 28
12062 15076 15078 28
12063 15076 15079 28
12064 15076 15080 28
12065 15081 15082 28
12066 15081 15083 28
12067 15081 15084 28
12068 15081 15085 28
12069 15086 15087 28
12070 15086 15088 28
12071 15086 15089 28
12072 15086 15090 28
12073 15091 15092 28
12074 15091 15093 28
12075 15091 15094 28
12076 15091 15095 28
12077 15096 15097 28
12078 15096 15098 28
12079 15096 15099 28
12080 15096 15100 28
12081 15101 15102 28
12082 15101 15103 28
12083 15101 15104 28
12084 15101 15105 28
12085 15106 15107 28
12086 15106 15108 28
12087 15106 15109 28
12088 15106 15110 28
12089 15111 15112 28
12090 15111 15113 28
12091 15111 15114 28
12092 15111 15115 28
12093 15116 15117 28
12094 15116 15118 28
12095 15116 15119 28
12096 15116 15120 28
12097 15121 15122 28
12098 15121 15123 28
12099 15121 15124 28
12100 15121 15125 28
12101 15126 15127 28
12102 15126 15128 28
12103 15126 15129 28
12104 15126 15130 28
12105 15131 15132 28
12106 15131 15133 28
12107 15131 15134 28
12108 15131 15135 28
12109 15136 15137 28
12110 15136 15138 28
12111 15136 15139 28
12112 15136 15140 28
12113 15141 15142 28
12114 15141 15143 28
12115 15141 15144 28
12116 15141 15145 28
12117 15146 15147 28
12118 15146 15148 28
12119 15146 15149 28
12120 15146 15150 28
12121 15151 15152 28
12122 15151 15153 28
12123 15151 15154 28
12124 15151 15155 28
12125 15156 15157 28
12126 15156 15158 28
12127 15156 15159 28
12128 15156 15160 28
12129 15161 15162 28
12130 15161 15163 28
12131 15161 15164 28
12132 15161 15165 28
12133 15166 15167 28
12134 15166 15168 28
12135 15166 15169 28
12136 15166 15170 28
12137 15171 15172 28
12138 15171 15173 28
12139 15171 15174 28
12140 15171 15175 28
12141 15176 15177 28
12142 15176 15178 28
12143 15176 15179 28
12144 15176 15180 28
12145 15181 15182 28
12146 15181 15183 28
12147 15181 15184 28
12148 15181 15185 28
12149 15186 15187 28
12150 15186 15188 28
12151 15186 15189 28
12152 15186 15190 28
12153 15191 15192 28
12154 15191 15193 28
12155 15191 15194 28
12156 15191 15195 28
12157 15196 15197 28
12158 15196 15198 28
12159 15196 15199 28
12160 15196 15200 28
12161 15201 15202 28
12162 15201 15203 28
12163 15201 15204 28
12164 15201 15205 28
12165 15206 15207 28
12166 15206 15208 28
12167 15206 15209 28
12168 15206 15210 28
12169 15211 15212 28
12170 15211 15213 28
12171 15211 15214 28
12172 15211 15215 28
12173 15216 15217 28
12174 15216 15218 28
12175 15216 15219 28
12176 15216 15220 28
12177 15221 15222 28
12178 15221 15223 28
12179 15221 15224 28
12180 15221 15225 28
12181 15226 15227 28
12182 15226 15228 28
12183 15226 15229 28
12184 15226 15230 28
12185 15231 15232 28
12186 15231 15233 28
12187 15231 15234 28
12188 15231 15235 28
12189 15236 15237 28
12190 15236 15238 28
12191 15236 15239 28
12192 15236 15240 28
12193 15241 15242 28
12194 15241 15243 28
12195 15241 15244 28
12196 15241 15245 28
12197 15246 15247 28
12198 15246 15248 28
12199 15246 15249 28
12200 15246 15250 28
12201 15251 15252 28
12202 15251 15253 28
12203 15251 15254 28
12204 15251 15255 28
12205 15256 15257 28
12206 15256 15258 28
12207 15256 15259 28
12208 15256 15260 28
12209 15261 15262 28
12210 15261 15263 28
12211 15261 15264 28
12212 15261 15265 28
12213 15266 15267 28
12214 15266 15268 28
12215 15266 15269 28
12216 15266 15270 28
12217 15271 15272 28
12218 15271 15273 28
12219 15271 15274 28
12220 15271 15275 28
12221 15276 15277 28
12222 15276 15278 28
12223 15276 15279 28
12224 15276 15280 28
12225 15281 15282 28
12226 15281 15283 28
12227 15281 15284 28
12228 15281 15285 28
12229 15286 15287 28
12230 15286 15288 28
12231 15286 15289 28
12232 15286 15290 28
12233 15291 15292 28
12234 15291 15293 28
12235 15291 15294 28
12236 15291 15295 28
12237 15296 15297 28
12238 15296 15298 28
12239 15296 15299 28
12240 15296 15300 28
12241 15301 15302 28
12242 15301 15303 28
12243 15301 15304 28
12244 15301 15305 28
12245 15306 15307 28
12246 15306 15308 28
12247 15306 15309 28
12248 15306 15310 28
12249 15311 15312 28
12250 15311 15313 28
12251 15311 15314 28
12252 15311 15315 28
12253 15316 15317 28
12254 15316 15318 28
12255 15316 15319 28
12256 15316 15320 28
12257 15321 15322 28
12258 15321 15323 28
12259 15321 15324 28
12260 15321 15325 28
12261 15326 15327 28
12262 15326 15328 28
12263 15326 15329 28
12264 15326 15330 28
12265 15331 15332 28
12266 15331 15333 28
12267 15331 15334 28
12268 15331 15335 28
12269 15336 15337 28
12270 15336 15338 28
12271 15336 15339 28
12272 15336 15340 28
12273 15341 15342 28
12274 15341 15343 28
12275 15341 15344 28
12276 15341 15345 28
12277 15346 15347 28
12278 15346 15348 28
12279 15346 15349 28
12280 15346 15350 28
12281 15351 15352 28
12282 15351 15353 28
12283 15351 15354 28
12284 15351 15355 28
12285 15356 15357 28
12286 15356 15358 28
12287 15356 15359 28
12288 15356 15360 28
12289 15361 15362 28
12290 15361 15363 28
12291 15361 15364 28
12292 15361 15365 28
12293 15366 15367 28
12294 15366 15368 28
12295 15366 15369 28
12296 15366 15370 28
12297 15371 15372 28
12298 15371 15373 28
12299 15371 15374 28
12300 15371 15375 28
12301 15376 15377 28
12302 15376 15378 28
12303 15376 15379 28
12304 15376 15380 28
12305 15381 15382 28
12306 15381 15383 28
12307 15381 15384 28
12308 15381 15385 28
12309 15386 15387 28
12310 15386 15388 28
12311 15386 15389 28
12312 15386 15390 28
12313 15391 15392 28
12314 15391 15393 28
12315 15391 15394 28
12316 15391 15395 28
12317 15396 15397 28
12318 15396 15398 28
12319 15396 15399 28
12320 15396 15400 28
12321 15401 15402 28
12322 15401 15403 28
12323 15401 15404 28
12324 15401 15405 28
12325 15406 15407 28
12326 15406 15408 28
12327 15406 15409 28
12328 15406 15410 28
12329 15411 15412 28
12330 15411 15413 28
12331 15411 15414 28
12332 15411 15415 28
12333 15416 15417 28
12334 15416 15418 28
12335 15416 15419 28
12336 15416 15420 28
12337 15421 15422 28
12338 15421 15423 28
12339 15421 15424 28
12340 15421 15425 28
12341 15426 15427 28
12342 15426 15428 28
12343 15426 15429 28
12344 15426 15430 28
12345 15431 15432 28
12346 15431 15433 28
12347 15431 15434 28
12348 15431 15435 28
12349 15436 15437 28
12350 15436 15438 28
12351 15436 15439 28
12352 15436 15440 28
12353 15441 15442 28
12354 15441 15443 28
12355 15441 15444 28
12356 15441 15445 28
12357 15446 15447 28
12358 15446 15448 28
12359 15446 15449 28
12360 15446 15450 28
12361 15451 15452 28
12362 15451 15453 28
12363 15451 15454 28
12364 15451 15455 28
12365 15456 15457 28
12366 15456 15458 28
12367 15456 15459 28
12368 15456 15460 28
12369 15461 15462 28
12370 15461 15463 28
12371 15461 15464 28
12372 15461 15465 28
12373 15466 15467 28
12374 15466 15468 28
12375 15466 15469 28
12376 15466 15470 28
12377 15471 15472 28
12378 15471 15473 28
12379 15471 15474 28
12380 15471 15475 28
12381 15476 15477 28
12382 15476 15478 28
12383 15476 15479 28
12384 15476 15480 28
12385 15481 15482 28
12386 15481 15483 28
12387 15481 15484 28
12388 15481 15485 28
12389 15486 15487 28
12390 15486 15488 28
12391 15486 15489 28
12392 15486 15490 28
12393 15491 15492 28
12394 15491 15493 28
12395 15491 15494 28
12396 15491 15495 28
12397 15496 15497 28
12398 15496 15498 28
12399 15496 15499 28
12400 15496 15500 28
12401 15501 15502 28
12402 15501 15503 28
12403 15501 15504 28
12404 15501 15505 28
12405 15506 15507 28
12406 15506 15508 28
12407 15506 15509 28
12408 15506 15510 28
12409 15511 15512 28
12410 15511 15513 28
12411 15511 15514 28
12412 15511 15515 28
12413 15516 15517 28
12414 15516 15518 28
12415 15516 15519 28
12416 15516 15520 28
12417 15521 15522 28
12418 15521 15523 28
12419 15521 15524 28
12420 15521 15525 28
12421 15526 15527 28
12422 15526 15528 28
12423 15526 15529 28
12424 15526 15530 28
12425 15531 15532 28
12426 15531 15533 28
12427 15531 15534 28
12428 15531 15535 28
12429 15536 15537 28
12430 15536 15538 28
12431 15536 15539 28
12432 15536 15540 28
12433 15541 15542 28
12434 15541 15543 28
12435 15541 15544 28
12436 15541 15545 28
12437 15546 15547 28
12438 15546 15548 28
12439 15546 15549 28
12440 15546 15550 28
12441 15551 15552 28
12442 15551 15553 28
12443 15551 15554 28
12444 15551 15555 28
12445 15556 15557 28
12446 15556 15558 28
12447 15556 15559 28
12448 15556 15560 28
12449 15561 15562 28
12450 15561 15563 28
12451 15561 15564 28
12452 15561 15565 28
12453 15566 15567 28
12454 15566 15568 28
12455 15566 15569 28
12456 15566 15570 28
12457 15571 15572 28
12458 15571 15573 28
12459 15571 15574 28
12460 15571 15575 28
12461 15576 15577 28
12462 15576 15578 28
12463 15576 15579 28
12464 15576 15580 28
12465 15581 15582 28
12466 15581 15583 28
12467 15581 15584 28
12468 15581 15585 28
12469 15586 15587 28
12470 15586 15588 28
12471 15586 15589 28
12472 15586 15590 28
12473 15591 15592 28
12474 15591 15593 28
12475 15591 15594 28
12476 15591 15595 28
12477 15596 15597 28
12478 15596 15598 28
12479 15596 15599 28
12480 15596 15600 28
12481 15601 15602 28
12482 15601 15603 28
12483 15601 15604 28
12484 15601 15605 28
12485 15606 15607 28
12486 15606 15608 28
12487 15606 15609 28
12488 15606 15610 28
12489 15611 15612 28
12490 15611 15613 28
12491 15611 15614 28
12492 15611 15615 28
12493 15616 15617 28
12494 15616 15618 28
12495 15616 15619 28
12496 15616 15620 28
12497 15621 15622 28
12498 15621 15623 28
12499 15621 15624 28
12500 15621 15625 28
12501 15626 15627 28
12502 15626 15628 28
12503 15626 15629 28
12504 15626 15630 28
12505 15631 15632 28
12506 15631 15633 28
12507 15631 15634 28
12508 15631 15635 28
12509 15636 15637 28
12510 15636 15638 28
12511 15636 15639 28
12512 15636 15640 28
12513 15641 15642 28
12514 15641 15643 28
12515 15641 15644 28
12516 15641 15645 28
12517 15646 15647 28
12518 15646 15648 28
12519 15646 15649 28
12520 15646 15650 28
12521 15651 15652 28
12522 15651 15653 28
12523 15651 15654 28
12524 15651 15655 28
12525 15656 15657 28
12526 15656 15658 28
12527 15656 15659 28
12528 15656 15660 28
12529 15661 15662 28
12530 15661 15663 28
12531 15661 15664 28
12532 15661 15665 28
12533 15666 15667 28
12534 15666 15668 28
12535 15666 15669 28
12536 15666 15670 28
12537 15671 15672 28
12538 15671 15673 28
12539 15671 15674 28
12540 15671 15675 28
12541 15676 15677 28
12542 15676 15678 28
12543 15676 15679 28
12544 15676 15680 28
12545 15681 15682 28
12546 15681 15683 28
12547 15681 15684 28
12548 15681 15685 28
12549 15686 15687 28
12550 15686 15688 28
12551 15686 15689 28
12552 15686 15690 28
12553 15691 15692 28
12554 15691 15693 28
12555 15691 15694 28
12556 15691 15695 28
12557 15696 15697 28
12558 15696 15698 28
12559 15696 15699 28
12560 15696 15700 28
12561 15701 15702 28
12562 15701 15703 28
12563 15701 15704 28
12564 15701 15705 28
12565 15706 15707 28
12566 15706 15708 28
12567 15706 15709 28
12568 15706 15710 28
12569 15711 15712 28
12570 15711 15713 28
12571 15711 15714 28
12572 15711 15715 28
12573 15716 15717 28
12574 15716 15718 28
12575 15716 15719 28
12576 15716 15720 28
12577 15721 15722 28
12578 15721 15723 28
12579 15721 15724 28
12580 15721 15725 28
12581 15726 15727 28
12582 15726 15728 28
12583 15726 15729 28
12584 15726 15730 28
12585 15731 15732 28
12586 15731 15733 28
12587 15731 15734 28
12588 15731 15735 28
12589 15736 15737 28
12590 15736 15738 28
12591 15736 15739 28
12592 15736 15740 28
12593 15741 15742 28
12594 15741 15743 28
12595 15741 15744 28
12596 15741 15745 28
12597 15746 15747 28
12598 15746 15748 28
12599 15746 15749 28
12600 15746 15750 28
12601 15751 15752 28
12602 15751 15753 28
12603 15751 15754 28
12604 15751 15755 28
12605 15756 15757 28
12606 15756 15758 28
12607 15756 15759 28
12608 15756 15760 28
12609 15761 15762 28
12610 15761 15763 28
12611 15761 15764 28
12612 15761 15765 28
12613 15766 15767 28
12614 15766 15768 28
12615 15766 15769 28
12616 15766 15770 28
12617 15771 15772 28
12618 15771 15773 28
12619 15771 15774 28
12620 15771 15775 28
12621 15776 15777 28
12622 15776 15778 28
12623 15776 15779 28
12624 15776 15780 28
12625 15781 15782 28
12626 15781 15783 28
12627 15781 15784 28
12628 15781 15785 28
12629 15786 15787 28
12630 15786 15788 28
12631 15786 15789 28
12632 15786 15790 28
12633 15791 15792 28
12634 15791 15793 28
12635 15791 15794 28
12636 15791 15795 28
12637 15796 15797 28
12638 15796 15798 28
12639 15796 15799 28
12640 15796 15800 28
12641 15801 15802 28
12642 15801 15803 28
12643 15801 15804 28
12644 15801 15805 28
12645 15806 15807 28
12646 15806 15808 28
12647 15806 15809 28
12648 15806 15810 28
12649 15811 15812 28
12650 15811 15813 28
12651 15811 15814 28
12652 15811 15815 28
12653 15816 15817 28
12654 15816 15818 28
12655 15816 15819 28
12656 15816 15820 28
12657 15821 15822 28
12658 15821 15823 28
12659 15821 15824 28
12660 15821 15825 28
12661 15826 15827 28
12662 15826 15828 28
12663 15826 15829 28
12664 15826 15830 28
12665 15831 15832 28
12666 15831 15833 28
12667 15831 15834 28
12668 15831 15835 28
12669 15836 15837 28
12670 15836 15838 28
12671 15836 15839 28
12672 15836 15840 28
12673 15841 15842 28
12674 15841 15843 28
12675 15841 15844 28
12676 15841 15845 28
12677 15846 15847 28
12678 15846 15848 28
12679 15846 15849 28
12680 15846 15850 28
12681 15851 15852 28
12682 15851 15853 28
12683 15851 15854 28
12684 15851 15855 28
12685 15856 15857 28
12686 15856 15858 28
12687 15856 15859 28
12688 15856 15860 28
12689 15861 15862 28
12690 15861 15863 28
12691 15861 15864 28
12692 15861 15865 28
12693 15866 15867 28
12694 15866 15868 28
12695 15866 15869 28
12696 15866 15870 28
12697 15871 15872 28
12698 15871 15873 28
12699 15871 15874 28
12700 15871 15875 28
12701 15876 15877 28
12702 15876 15878 28
12703 15876 15879 28
12704 15876 15880 28
12705 15881 15882 28
12706 15881 15883 28
12707 15881 15884 28
12708 15881 15885 28
12709 15886 15887 28
12710 15886 15888 28
12711 15886 15889 28
12712 15886 15890 28
12713 15891 15892 28
12714 15891 15893 28
12715 15891 15894 28
12716 15891 15895 28
12717 15896 15897 28
12718 15896 15898 28
12719 15896 15899 28
12720 15896 15900 28
12721 15901 15902 28
12722 15901 15903 28
12723 15901 15904 28
12724 15901 15905 28
12725 15906 15907 28
12726 15906 15908 28
12727 15906 15909 28
12728 15906 15910 28
12729 15911 15912 28
12730 15911 15913 28
12731 15911 15914 28
12732 15911 15915 28
12733 15916 15917 28
12734 15916 15918 28
12735 15916 15919 28
12736 15916 15920 28
12737 15921 15922 28
12738 15921 15923 28
12739 15921 15924 28
12740 15921 15925 28
12741 15926 15927 28
12742 15926 15928 28
12743 15926 15929 28
12744 15926 15930 28
12745 15931 15932 28
12746 15931 15933 28
12747 15931 15934 28
12748 15931 15935 28
12749 15936 15937 28
12750 15936 15938 28
12751 15936 15939 28
12752 15936 15940 28
12753 15941 15942 28
12754 15941 15943 28
12755 15941 15944 28
12756 15941 15945 28
12757 15946 15947 28
12758 15946 15948 28
12759 15946 15949 28
12760 15946 15950 28
12761 15951 15952 28
12762 15951 15953 28
12763 15951 15954 28
12764 15951 15955 28
12765 15956 15957 28
12766 15956 15958 28
12767 15956 15959 28
12768 15956 15960 28
12769 15961 15962 28
12770 15961 15963 28
12771 15961 15964 28
12772 15961 15965 28
12773 15966 15967 28
12774 15966 15968 28
12775 15966 15969 28
12776 15966 15970 28
12777 15971 15972 28
12778 15971 15973 28
12779 15971 15974 28
12780 15971 15975 28
12781 15976 15977 28
12782 15976 15978 28
12783 15976 15979 28
12784 15976 15980 28
12785 15981 15982 28
12786 15981 15983 28
12787 15981 15984 28
12788 15981 15985 28
12789 15986 15987 28
12790 15986 15988 28
12791 15986 15989 28
12792 15986 15990 28
12793 15991 15992 28
12794 15991 15993 28
12795 15991 15994 28
12796 15991 15995 28
12797 15996 15997 28
12798 15996 15998 28
12799 15996 15999 28
12800 15996 16000 28
12801 16001 16002 28
12802 16001 16003 28
12803 16001 16004 28
12804 16001 16005 28
12805 16006 16007 28
12806 16006 16008 28
12807 16006 16009 28
12808 16006 16010 28
12809 16011 16012 28
12810 16011 16013 28
12811 16011 16014 28
12812 16011 16015 28
12813 16016 16017 28
12814 16016 16018 28
12815 16016 16019 28
12816 16016 16020 28
12817 16021 16022 28
12818 16021 16023 28
12819 16021 16024 28
12820 16021 16025 28
12821 16026 16027 28
12822 16026 16028 28
12823 16026 16029 28
12824 16026 16030 28
12825 16031 16032 28
12826 16031 16033 28
12827 16031 16034 28
12828 16031 16035 28
12829 16036 16037 28
12830 16036 16038 28
12831 16036 16039 28
12832 16036 16040 28
12833 16041 16042 28
12834 16041 16043 28
12835 16041 16044 28
12836 16041 16045 28
12837 16046 16047 28
12838 16046 16048 28
12839 16046 16049 28
12840 16046 16050 28
12841 16051 16052 28
12842 16051 16053 28
12843 16051 16054 28
12844 16051 16055 28
12845 16056 16057 28
12846 16056 16058 28
12847 16056 16059 28
12848 16056 16060 28
12849 16061 16062 28
12850 16061 16063 28
12851 16061 16064 28
12852 16061 16065 28
12853 16066 16067 28
12854 16066 16068 28
12855 16066 16069 28
12856 16066 16070 28
12857 16071 16072 28
12858 16071 16073 28
12859 16071 16074 28
12860 16071 16075 28
12861 16076 16077 28
12862 16076 16078 28
12863 16076 16079 28
12864 16076 16080 28
12865 16081 16082 28
12866 16081 16083 28
12867 16081 16084 28
12868 16081 16085 28
12869 16086 16087 28
12870 16086 16088 28
12871 16086 16089 28
12872 16086 16090 28
12873 16091 16092 28
12874 16091 16093 28
12875 16091 16094 28
12876 16091 16095 28
12877 16096 16097 28
12878 16096 16098 28
12879 16096 16099 28
12880 16096 16100 28
12881 16101 16102 28
12882 16101 16103 28
12883 16101 16104 28
12884 16101 16105 28
12885 16106 16107 28
12886 16106 16108 28
12887 16106 16109 28
12888 16106 16110 28
12889 16111 16112 28
12890 16111 16113 28
12891 16111 16114 28
12892 16111 16115 28
12893 16116 16117 28
12894 16116 16118 28
12895 16116 16119 28
12896 16116 16120 28
12897 16121 16122 28
12898 16121 16123 28
12899 16121 16124 28
12900 16121 16125 28
12901 16126 16127 28
12902 16126 16128 28
12903 16126 16129 28
12904 16126 16130 28
12905 16131 16132 28
12906 16131 16133 28
12907 16131 16134 28
12908 16131 16135 28
12909 16136 16137 28
12910 16136 16138 28
12911 16136 16139 28
12912 16136 16140 28
12913 16141 16142 28
12914 16141 16143 28
12915 16141 16144 28
12916 16141 16145 28
12917 16146 16147 28
12918 16146 16148 28
12919 16146 16149 28
12920 16146 16150 28
12921 16151 16152 28
12922 16151 16153 28
12923 16151 16154 28
12924 16151 16155 28
12925 16156 16157 28
12926 16156 16158 28
12927 16156 16159 28
12928 16156 16160 28
12929 16161 16162 28
12930 16161 16163 28
12931 16161 16164 28
12932 16161 16165 28
12933 16166 16167 28
12934 16166 16168 28
12935 16166 16169 28
12936 16166 16170 28
12937 16171 16172 28
12938 16171 16173 28
12939 16171 16174 28
12940 16171 16175 28
12941 16176 16177 28
12942 16176 16178 28
12943 16176 16179 28
12944 16176 16180 28
12945 16181 16182 28
12946 16181 16183 28
12947 16181 16184 28
12948 16181 16185 28
12949 16186 16187 28
12950 16186 16188 28
12951 16186 16189 28
12952 16186 16190 28
12953 16191 16192 28
12954 16191 16193 28
12955 16191 16194 28
12956 16191 16195 28
12957 16196 16197 28
12958 16196 16198 28
12959 16196 16199 28
12960 16196 16200 28
12961 16201 16202 28
12962 16201 16203 28
12963 16201 16204 28
12964 16201 16205 28
12965 16206 16207 28
12966 16206 16208 28
12967 16206 16209 28
12968 16206 16210 28
12969 16211 16212 28
12970 16211 16213 28
12971 16211 16214 28
12972 16211 16215 28
12973 16216 16217 28
12974 16216 16218 28
12975 16216 16219 28
12976 16216 16220 28
12977 16221 16222 28
12978 16221 16223 28
12979 16221 16224 28
12980 16221 16225 28
12981 16226 16227 28
12982 16226 16228 28
12983 16226 16229 28
12984 16226 16230 28
12985 16231 16232 28
12986 16231 16233 28
12987 16231 16234 28
12988 16231 16235 28
12989 16236 16237 28
12990 16236 16238 28
12991 16236 16239 28
12992 16236 16240 28
12993 16241 16242 28
12994 16241 16243 28
12995 16241 16244 28
12996 16241 16245 28
12997 16246 16247 28
12998 16246 16248 28
12999 16246 16249 28
13000 16246 16250 28
13001 16251 16252 28
13002 16251 16253 28
13003 16251 16254 28
13004 16251 16255 28
13005 16256 16257 28
13006 16256 16258 28
13007 16256 16259 28
13008 16256 16260 28
13009 16261 16262 28
13010 16261 16263 28
13011 16261 16264 28
13012 16261 16265 28
13013 16266 16267 28
13014 16266 16268 28
13015 16266 16269 28
13016 16266 16270 28
13017 16271 16272 28
13018 16271 16273 28
13019 16271 16274 28
13020 16271 16275 28
13021 16276 16277 28
13022 16276 16278 28
13023 16276 16279 28
13024 16276 16280 28
13025 16281 16282 28
13026 16281 16283 28
13027 16281 16284 28
13028 16281 16285 28
13029 16286 16287 28
13030 16286 16288 28
13031 16286 16289 28
13032 16286 16290 28
13033 16291 16292 28
13034 16291 16293 28
13035 16291 16294 28
13036 16291 16295 28
13037 16296 16297 28
13038 16296 16298 28
13039 16296 16299 28
13040 16296 16300 28
13041 16301 16302 28
13042 16301 16303 28
13043 16301 16304 28
13044 16301 16305 28
13045 16306 16307 28
13046 16306 16308 28
13047 16306 16309 28
13048 16306 16310 28
13049 16311 16312 28
13050 16311 16313 28
13051 16311 16314 28
13052 16311 16315 28
13053 16316 16317 28
13054 16316 16318 28
13055 16316 16319 28
13056 16316 16320 28
13057 16321 16322 28
13058 16321 16323 28
13059 16321 16324 28
13060 16321 16325 28
13061 16326 16327 28
13062 16326 16328 28
13063 16326 16329 28
13064 16326 16330 28
13065 16331 16332 28
13066 16331 16333 28
13067 16331 16334 28
13068 16331 16335 28
13069 16336 16337 28
13070 16336 16338 28
13071 16336 16339 28
13072 16336 16340 28
13073 16341 16342 28
13074 16341 16343 28
13075 16341 16344 28
13076 16341 16345 28
13077 16346 16347 28
13078 16346 16348 28
13079 16346 16349 28
13080 16346 16350 28
13081 16351 16352 28
13082 16351 16353 28
13083 16351 16354 28
13084 16351 16355 28
13085 16356 16357 28
13086 16356 16358 28
13087 16356 16359 28
13088 16356 16360 28
13089 16361 16362 28
13090 16361 16363 28
13091 16361 16364 28
13092 16361 16365 28
13093 16366 16367 28
13094 16366 16368 28
13095 16366 16369 28
13096 16366 16370 28
13097 16371 16372 28
13098 16371 16373 28
13099 16371 16374 28
13100 16371 16375 28
13101 16376 16377 28
13102 16376 16378 28
13103 16376 16379 28
13104 16376 16380 28
13105 16381 16382 28
13106 16381 16383 28
13107 16381 16384 28
13108 16381 16385 28
13109 16386 16387 28
13110 16386 16388 28
13111 16386 16389 28
13112 16386 16390 28
13113 16391 16392 28
13114 16391 16393 28
13115 16391 16394 28
13116 16391 16395 28
13117 16396 16397 28
13118 16396 16398 28
13119 16396 16399 28
13120 16396 16400 28
13121 16401 16402 28
13122 16401 16403 28
13123 16401 16404 28
13124 16401 16405 28
13125 16406 16407 28
13126 16406 16408 28
13127 16406 16409 28
13128 16406 16410 28
13129 16411 16412 28
13130 16411 16413 28
13131 16411 16414 28
13132 16411 16415 28
13133 16416 16417 28
13134 16416 16418 28
13135 16416 16419 28
13136 16416 16420 28
13137 16421 16422 28
13138 16421 16423 28
13139 16421 16424 28
13140 16421 16425 28
13141 16426 16427 28
13142 16426 16428 28
13143 16426 16429 28
13144 16426 16430 28
13145 16431 16432 28
13146 16431 16433 28
13147 16431 16434 28
13148 16431 16435 28
13149 16436 16437 28
13150 16436 16438 28
13151 16436 16439 28
13152 16436 16440 28
13153 16441 16442 28
13154 16441 16443 28
13155 16441 16444 28
13156 16441 16445 28
13157 16446 16447 28
13158 16446 16448 28
13159 16446 16449 28
13160 16446 16450 28
13161 16451 16452 28
13162 16451 16453 28
13163 16451 16454 28
13164 16451 16455 28
13165 16456 16457 28
13166 16456 16458 28
13167 16456 16459 28
13168 16456 16460 28
13169 16461 16462 28
13170 16461 16463 28
13171 16461 16464 28
13172 16461 16465 28
13173 16466 16467 28
13174 16466 16468 28
13175 16466 16469 28
13176 16466 16470 28
13177 16471 16472 28
13178 16471 16473 28
13179 16471 16474 28
13180 16471 16475 28
13181 16476 16477 28
13182 16476 16478 28
13183 16476 16479 28
13184 16476 16480 28
13185 16481 16482 28
13186 16481 16483 28
13187 16481 16484 28
13188 16481 16485 28
13189 16486 16487 28
13190 16486 16488 28
13191 16486 16489 28
13192 16486 16490 28
13193 16491 16492 28
13194 16491 16493 28
13195 16491 16494 28
13196 16491 16495 28
13197 16496 16497 28
13198 16496 16498 28
13199 16496 16499 28
13200 16496 16500 28
13201 16501 16502 28
13202 16501 16503 28
13203 16501 16504 28
13204 16501 16505 28
13205 16506 16507 28
13206 16506 16508 28
13207 16506 16509 28
13208 16506 16510 28
13209 16511 16512 28
13210 16511 16513 28
13211 16511 16514 28
13212 16511 16515 28
13213 16516 16517 28
13214 16516 16518 28
13215 16516 16519 28
13216 16516 16520 28
13217 16521 16522 28
13218 16521 16523 28
13219 16521 16524 28
13220 16521 16525 28
13221 16526 16527 28
13222 16526 16528 28
13223 16526 16529 28
13224 16526 16530 28
13225 16531 16532 28
13226 16531 16533 28
13227 16531 16534 28
13228 16531 16535 28
13229 16536 16537 28
13230 16536 16538 28
13231 16536 16539 28
13232 16536 16540 28
13233 16541 16542 28
13234 16541 16543 28
13235 16541 16544 28
13236 16541 16545 28
13237 16546 16547 28
13238 16546 16548 28
13239 16546 16549 28
13240 16546 16550 28
13241 16551 16552 28
13242 16551 16553 28
13243 16551 16554 28
13244 16551 16555 28
13245 16556 16557 28
13246 16556 16558 28
13247 16556 16559 28
13248 16556 16560 28
13249 16561 16562 28
13250 16561 16563 28
13251 16561 16564 28
13252 16561 16565 28
13253 16566 16567 28
13254 16566 16568 28
13255 16566 16569 28
13256 16566 16570 28
13257 16571 16572 28
13258 16571 16573 28
13259 16571 16574 28
13260 16571 16575 28
13261 16576 16577 28
13262 16576 16578 28
13263 16576 16579 28
13264 16576 16580 28
13265 16581 16582 28
13266 16581 16583 28
13267 16581 16584 28
13268 16581 16585 28
13269 16586 16587 28
13270 16586 16588 28
13271 16586 16589 28
13272 16586 16590 28
13273 16591 16592 28
13274 16591 16593 28
13275 16591 16594 28
13276 16591 16595 28
13277 16596 16597 28
13278 16596 16598 28
13279 16596 16599 28
13280 16596 16600 28
13281 16601 16602 28
13282 16601 16603 28
13283 16601 16604 28
13284 16601 16605 28
13285 16606 16607 28
13286 16606 16608 28
13287 16606 16609 28
13288 16606 16610 28
13289 16611 16612 28
13290 16611 16613 28
13291 16611 16614 28
13292 16611 16615 28
13293 16616 16617 28
13294 16616 16618 28
13295 16616 16619 28
13296 16616 16620 28
13297 16621 16622 28
13298 16621 16623 28
13299 16621 16624 28
13300 16621 16625 28
13301 16626 16627 28
13302 16626 16628 28
13303 16626 16629 28
13304 16626 16630 28
13305 16631 16632 28
13306 16631 16633 28
13307 16631 16634 28
13308 16631 16635 28
13309 16636 16637 28
13310 16636 16638 28
13311 16636 16639 28
13312 16636 16640 28
13313 16641 16642 28
13314 16641 16643 28
13315 16641 16644 28
13316 16641 16645 28
13317 16646 16647 28
13318 16646 16648 28
13319 16646 16649 28
13320 16646 16650 28
13321 16651 16652 28
13322 16651 16653 28
13323 16651 16654 28
13324 16651 16655 28
13325 16656 16657 28
13326 16656 16658 28
13327 16656 16659 28
13328 16656 16660 28
13329 16661 16662 28
13330 16661 16663 28
13331 16661 16664 28
13332 16661 16665 28
13333 16666 16667 28
13334 16666 16668 28
13335 16666 16669 28
13336 16666 16670 28
13337 16671 16672 28
13338 16671 16673 28
13339 16671 16674 28
13340 16671 16675 28
13341 16676 16677 28
13342 16676 16678 28
13343 16676 16679 28
13344 16676 16680 28
13345 16681 16682 28
13346 16681 16683 28
13347 16681 16684 28
13348 16681 16685 28
13349 16686 16687 28
13350 16686 16688 28
13351 16686 16689 28
13352 16686 16690 28
13353 16691 16692 28
13354 16691 16693 28
13355 16691 16694 28
13356 16691 16695 28
13357 16696 16697 28
13358 16696 16698 28
13359 16696 16699 28
13360 16696 16700 28
13361 16701 16702 28
13362 16701 16703 28
13363 16701 16704 28
13364 16701 16705 28
13365 16706 16707 28
13366 16706 16708 28
13367 16706 16709 28
13368 16706 16710 28
13369 16711 16712 28
13370 16711 16713 28
13371 16711 16714 28
13372 16711 16715 28
13373 16716 16717 28
13374 16716 16718 28
13375 16716 16719 28
13376 16716 16720 28
13377 16721 16722 28
13378 16721 16723 28
13379 16721 16724 28
13380 16721 16725 28
13381 16726 16727 28
13382 16726 16728 28
13383 16726 16729 28
13384 16726 16730 28
13385 16731 16732 28
13386 16731 16733 28
13387 16731 16734 28
13388 16731 16735 28
13389 16736 16737 28
13390 16736 16738 28
13391 16736 16739 28
13392 16736 16740 28
13393 16741 16742 28
13394 16741 16743 28
13395 16741 16744 28
13396 16741 16745 28
13397 16746 16747 28
13398 16746 16748 28
13399 16746 16749 28
13400 16746 16750 28
13401 16751 16752 28
13402 16751 16753 28
13403 16751 16754 28
13404 16751 16755 28
13405 16756 16757 28
13406 16756 16758 28
13407 16756 16759 28
13408 16756 16760 28
13409 16761 16762 28
13410 16761 16763 28
13411 16761 16764 28
13412 16761 16765 28
13413 16766 16767 28
13414 16766 16768 28
13415 16766 16769 28
13416 16766 16770 28
13417 16771 16772 28
13418 16771 16773 28
13419 16771 16774 28
13420 16771 16775 28
13421 16776 16777 28
13422 16776 16778 28
13423 16776 16779 28
13424 16776 16780 28
13425 16781 16782 28
13426 16781 16783 28
13427 16781 16784 28
13428 16781 16785 28
13429 16786 16787 28
13430 16786 16788 28
13431 16786 16789 28
13432 16786 16790 28
13433 16791 16792 28
13434 16791 16793 28
13435 16791 16794 28
13436 16791 16795 28
13437 16796 16797 28
13438 16796 16798 28
13439 16796 16799 28
13440 16796 16800 28
13441 16801 16802 28
13442 16801 16803 28
13443 16801 16804 28
13444 16801 16805 28
13445 16806 16807 28
13446 16806 16808 28
13447 16806 16809 28
13448 16806 16810 28
13449 16811 16812 28
13450 16811 16813 28
13451 16811 16814 28
13452 16811 16815 28
13453 16816 16817 28
13454 16816 16818 28
13455 16816 16819 28
13456 16816 16820 28
13457 16821 16822 28
13458 16821 16823 28
13459 16821 16824 28
13460 16821 16825 28
13461 16826 16827 28
13462 16826 16828 28
13463 16826 16829 28
13464 16826 16830 28
13465 16831 16832 28
13466 16831 16833 28
13467 16831 16834 28
13468 16831 16835 28
13469 16836 16837 28
13470 16836 16838 28
13471 16836 16839 28
13472 16836 16840 28
13473 16841 16842 28
13474 16841 16843 28
13475 16841 16844 28
13476 16841 16845 28
13477 16846 16847 28
13478 16846 16848 28
13479 16846 16849 28
13480 16846 16850 28
13481 16851 16852 28
13482 16851 16853 28
13483 16851 16854 28
13484 16851 16855 28
13485 16856 16857 28
13486 16856 16858 28
13487 16856 16859 28
13488 16856 16860 28
13489 16861 16862 28
13490 16861 16863 28
13491 16861 16864 28
13492 16861 16865 28
13493 16866 16867 28
13494 16866 16868 28
13495 16866 16869 28
13496 16866 16870 28
13497 16871 16872 28
13498 16871 16873 28
13499 16871 16874 28
13500 16871 16875 28
13501 16876 16877 28
13502 16876 16878 28
13503 16876 16879 28
13504 16876 16880 28
13505 16881 16882 28
13506 16881 16883 28
13507 16881 16884 28
13508 16881 16885 28
13509 16886 16887 28
13510 16886 16888 28
13511 16886 16889 28
13512 16886 16890 28
13513 16891 16892 28
13514 16891 16893 28
13515 16891 16894 28
13516 16891 16895 28
13517 16896 16897 28
13518 16896 16898 28
13519 16896 16899 28
13520 16896 16900 28
13521 16901 16902 28
13522 16901 16903 28
13523 16901 16904 28
13524 16901 16905 28
13525 16906 16907 28
13526 16906 16908 28
13527 16906 16909 28
13528 16906 16910 28
13529 16911 16912 28
13530 16911 16913 28
13531 16911 16914 28
13532 16911 16915 28
13533 16916 16917 28
13534 16916 16918 28
13535 16916 16919 28
13536 16916 16920 28
13537 16921 16922 28
13538 16921 16923 28
13539 16921 16924 28
13540 16921 16925 28
13541 16926 16927 28
13542 16926 16928 28
13543 16926 16929 28
13544 16926 16930 28
13545 16931 16932 28
13546 16931 16933 28
13547 16931 16934 28
13548 16931 16935 28
13549 16936 16937 28
13550 16936 16938 28
13551 16936 16939 28
13552 16936 16940 28
13553 16941 16942 28
13554 16941 16943 28
13555 16941 16944 28
13556 16941 16945 28
13557 16946 16947 28
13558 16946 16948 28
13559 16946 16949 28
13560 16946 16950 28
13561 16951 16952 28
13562 16951 16953 28
13563 16951 16954 28
13564 16951 16955 28
13565 16956 16957 28
13566 16956 16958 28
13567 16956 16959 28
13568 16956 16960 28
13569 16961 16962 28
13570 16961 16963 28
13571 16961 16964 28
13572 16961 16965 28
13573 16966 16967 28
13574 16966 16968 28
13575 16966 16969 28
13576 16966 16970 28
13577 16971 16972 28
13578 16971 16973 28
13579 16971 16974 28
13580 16971 16975 28
13581 16976 16977 28
13582 16976 16978 28
13583 16976 16979 28
13584 16976 16980 28
13585 16981 16982 28
13586 16981 16983 28
13587 16981 16984 28
13588 16981 16985 28
13589 16986 16987 28
13590 16986 16988 28
13591 16986 16989 28
13592 16986 16990 28
13593 16991 16992 28
13594 16991 16993 28
13595 16991 16994 28
13596 16991 16995 28
13597 16996 16997 28
13598 16996 16998 28
13599 16996 16999 28
13600 16996 17000 28
13601 17001 17002 28
13602 17001 17003 28
13603 17001 17004 28
13604 17001 17005 28
13605 17006 17007 28
13606 17006 17008 28
13607 17006 17009 28
13608 17006 17010 28
13609 17011 17012 28
13610 17011 17013 28
13611 17011 17014 28
13612 17011 17015 28
13613 17016 17017 28
13614 17016 17018 28
13615 17016 17019 28
13616 17016 17020 28
13617 17021 17022 28
13618 17021 17023 28
13619 17021 17024 28
13620 17021 17025 28
13621 17026 17027 28
13622 17026 17028 28
13623 17026 17029 28
13624 17026 17030 28
13625 17031 17032 28
13626 17031 17033 28
13627 17031 17034 28
13628 17031 17035 28
13629 17036 17037 28
13630 17036 17038 28
13631 17036 17039 28
13632 17036 17040 28
13633 17041 17042 28
13634 17041 17043 28
13635 17041 17044 28
13636 17041 17045 28
13637 17046 17047 28
13638 17046 17048 28
13639 17046 17049 28
13640 17046 17050 28
13641 17051 17052 28
13642 17051 17053 28
13643 17051 17054 28
13644 17051 17055 28
13645 17056 17057 28
13646 17056 17058 28
13647 17056 17059 28
13648 17056 17060 28
13649 17061 17062 28
13650 17061 17063 28
13651 17061 17064 28
13652 17061 17065 28
13653 17066 17067 28
13654 17066 17068 28
13655 17066 17069 28
13656 17066 17070 28
13657 17071 17072 28
13658 17071 17073 28
13659 17071 17074 28
13660 17071 17075 28
13661 17076 17077 28
13662 17076 17078 28
13663 17076 17079 28
13664 17076 17080 28
13665 17081 17082 28
13666 17081 17083 28
13667 17081 17084 28
13668 17081 17085 28
13669 17086 17087 28
13670 17086 17088 28
13671 17086 17089 28
13672 17086 17090 28
13673 17091 17092 28
13674 17091 17093 28
13675 17091 17094 28
13676 17091 17095 28
13677 17096 17097 28
13678 17096 17098 28
13679 17096 17099 28
13680 17096 17100 28
13681 17101 17102 28
13682 17101 17103 28
13683 17101 17104 28
13684 17101 17105 28
13685 17106 17107 28
13686 17106 17108 28
13687 17106 17109 28
13688 17106 17110 28
13689 17111 17112 28
13690 17111 17113 28
13691 17111 17114 28
13692 17111 17115 28
13693 17116 17117 28
13694 17116 17118 28
13695 17116 17119 28
13696 17116 17120 28
13697 17121 17122 28
13698 17121 17123 28
13699 17121 17124 28
13700 17121 17125 28
13701 17126 17127 28
13702 17126 17128 28
13703 17126 17129 28
13704 17126 17130 28
13705 17131 17132 28
13706 17131 17133 28
13707 17131 17134 28
13708 17131 17135 28
13709 17136 17137 28
13710 17136 17138 28
13711 17136 17139 28
13712 17136 17140 28
13713 17141 17142 28
13714 17141 17143 28
13715 17141 17144 28
13716 17141 17145 28
13717 17146 17147 28
13718 17146 17148 28
13719 17146 17149 28
13720 17146 17150 28
13721 17151 17152 28
13722 17151 17153 28
13723 17151 17154 28
13724 17151 17155 28
13725 17156 17157 28
13726 17156 17158 28
13727 17156 17159 28
13728 17156 17160 28
13729 17161 17162 28
13730 17161 17163 28
13731 17161 17164 28
13732 17161 17165 28
13733 17166 17167 28
13734 17166 17168 28
13735 17166 17169 28
13736 17166 17170 28
13737 17171 17172 28
13738 17171 17173 28
13739 17171 17174 28
13740 17171 17175 28
13741 17176 17177 28
13742 17176 17178 28
13743 17176 17179 28
13744 17176 17180 28
13745 17181 17182 28
13746 17181 17183 28
13747 17181 17184 28
13748 17181 17185 28
13749 17186 17187 28
13750 17186 17188 28
13751 17186 17189 28
13752 17186 17190 28
13753 17191 17192 28
13754 17191 17193 28
13755 17191 17194 28
13756 17191 17195 28
13757 17196 17197 28
13758 17196 17198 28
13759 17196 17199 28
13760 17196 17200 28
13761 17201 17202 28
13762 17201 17203 28
13763 17201 17204 28
13764 17201 17205 28
13765 17206 17207 28
13766 17206 17208 28
13767 17206 17209 28
13768 17206 17210 28
13769 17211 17212 28
13770 17211 17213 28
13771 17211 17214 28
13772 17211 17215 28
13773 17216 17217 28
13774 17216 17218 28
13775 17216 17219 28
13776 17216 17220 28
13777 17221 17222 28
13778 17221 17223 28
13779 17221 17224 28
13780 17221 17225 28
13781 17226 17227 28
13782 17226 17228 28
13783 17226 17229 28
13784 17226 17230 28
13785 17231 17232 28
13786 17231 17233 28
13787 17231 17234 28
13788 17231 17235 28
13789 17236 17237 28
13790 17236 17238 28
13791 17236 17239 28
13792 17236 17240 28
13793 17241 17242 28
13794 17241 17243 28
13795 17241 17244 28
13796 17241 17245 28
13797 17246 17247 28
13798 17246 17248 28
13799 17246 17249 28
13800 17246 17250 28
13801 17251 17252 28
13802 17251 17253 28
13803 17251 17254 28
13804 17251 17255 28
13805 17256 17257 28
13806 17256 17258 28
13807 17256 17259 28
13808 17256 17260 28
13809 17261 17262 28
13810 17261 17263 28
13811 17261 17264 28
13812 17261 17265 28
13813 17266 17267 28
13814 17266 17268 28
13815 17266 17269 28
13816 17266 17270 28
13817 17271 17272 28
13818 17271 17273 28
13819 17271 17274 28
13820 17271 17275 28
13821 17276 17277 28
13822 17276 17278 28
13823 17276 17279 28
13824 17276 17280 28
13825 17281 17282 28
13826 17281 17283 28
13827 17281 17284 28
13828 17281 17285 28
13829 17286 17287 28
13830 17286 17288 28
13831 17286 17289 28
13832 17286 17290 28
13833 17291 17292 28
13834 17291 17293 28
13835 17291 17294 28
13836 17291 17295 28
13837 17296 17297 28
13838 17296 17298 28
13839 17296 17299 28
13840 17296 17300 28
13841 17301 17302 28
13842 17301 17303 28
13843 17301 17304 28
13844 17301 17305 28
13845 17306 17307 28
13846 17306 17308 28
13847 17306 17309 28
13848 17306 17310 28
13849 17311 17312 28
13850 17311 17313 28
13851 17311 17314 28
13852 17311 17315 28
13853 17316 17317 28
13854 17316 17318 28
13855 17316 17319 28
13856 17316 17320 28
13857 17321 17322 28
13858 17321 17323 28
13859 17321 17324 28
13860 17321 17325 28
13861 17326 17327 28
13862 17326 17328 28
13863 17326 17329 28
13864 17326 17330 28
13865 17331 17332 28
13866 17331 17333 28
13867 17331 17334 28
13868 17331 17335 28
13869 17336 17337 28
13870 17336 17338 28
13871 17336 17339 28
13872 17336 17340 28
13873 17341 17342 28
13874 17341 17343 28
13875 17341 17344 28
13876 17341 17345 28
13877 17346 17347 28
13878 17346 17348 28
13879 17346 17349 28
13880 17346 17350 28
13881 17351 17352 28
13882 17351 17353 28
13883 17351 17354 28
13884 17351 17355 28
13885 17356 17357 28
13886 17356 17358 28
13887 17356 17359 28
13888 17356 17360 28
13889 17361 17362 28
13890 17361 17363 28
13891 17361 17364 28
13892 17361 17365 28
13893 17366 17367 28
13894 17366 17368 28
13895 17366 17369 28
13896 17366 17370 28
13897 17371 17372 28
13898 17371 17373 28
13899 17371 17374 28
13900 17371 17375 28
13901 17376 17377 28
13902 17376 17378 28
13903 17376 17379 28
13904 17376 17380 28
13905 17381 17382 28
13906 17381 17383 28
13907 17381 17384 28
13908 17381 17385 28
13909 17386 17387 28
13910 17386 17388 28
13911 17386 17389 28
13912 17386 17390 28
13913 17391 17392 28
13914 17391 17393 28
13915 17391 17394 28
13916 17391 17395 28
13917 17396 17397 28
13918 17396 17398 28
13919 17396 17399 28
13920 17396 17400 28
13921 17401 17402 28
13922 17401 17403 28
13923 17401 17404 28
13924 17401 17405 28
13925 17406 17407 28
13926 17406 17408 28
13927 17406 17409 28
13928 17406 17410 28
13929 17411 17412 28
13930 17411 17413 28
13931 17411 17414 28
13932 17411 17415 28
13933 17416 17417 28
13934 17416 17418 28
13935 17416 17419 28
13936 17416 17420 28
13937 17421 17422 28
13938 17421 17423 28
13939 17421 17424 28
13940 17421 17425 28
13941 17426 17427 28
13942 17426 17428 28
13943 17426 17429 28
13944 17426 17430 28
13945 17431 17432 28
13946 17431 17433 28
13947 17431 17434 28
13948 17431 17435 28
13949 17436 17437 28
13950 17436 17438 28
13951 17436 17439 28
13952 17436 17440 28
13953 17441 17442 28
13954 17441 17443 28
13955 17441 17444 28
13956 17441 17445 28
13957 17446 17447 28
13958 17446 17448 28
13959 17446 17449 28
13960 17446 17450 28
13961 17451 17452 28
13962 17451 17453 28
13963 17451 17454 28
13964 17451 17455 28
13965 17456 17457 28
13966 17456 17458 28
13967 17456 17459 28
13968 17456 17460 28
13969 17461 17462 28
13970 17461 17463 28
13971 17461 17464 28
13972 17461 17465 28
13973 17466 17467 28
13974 17466 17468 28
13975 17466 17469 28
13976 17466 17470 28
13977 17471 17472 28
13978 17471 17473 28
13979 17471 17474 28
13980 17471 17475 28
13981 17476 17477 28
13982 17476 17478 28
13983 17476 17479 28
13984 17476 17480 28
13985 17481 17482 28
13986 17481 17483 28
13987 17481 17484 28
13988 17481 17485 28
13989 17486 17487 28
13990 17486 17488 28
13991 17486 17489 28
13992 17486 17490 28
13993 17491 17492 28
13994 17491 17493 28
13995 17491 17494 28
13996 17491 17495 28
13997 17496 17497 28
13998 17496 17498 28
13999 17496 17499 28
14000 17496 17500 28
14001 17501 17502 28
14002 17501 17503 28
14003 17501 17504 28
14004 17501 17505 28
14005 17506 17507 28
14006 17506 17508 28
14007 17506 17509 28
14008 17506 17510 28
14009 17511 17512 28
14010 17511 17513 28
14011 17511 17514 28
14012 17511 17515 28
14013 17516 17517 28
14014 17516 17518 28
14015 17516 17519 28
14016 17516 17520 28
14017 17521 17522 28
14018 17521 17523 28
14019 17521 17524 28
14020 17521 17525 28
14021 17526 17527 28
14022 17526 17528 28
14023 17526 17529 28
14024 17526 17530 28
14025 17531 17532 28
14026 17531 17533 28
14027 17531 17534 28
14028 17531 17535 28
14029 17536 17537 28
14030 17536 17538 28
14031 17536 17539 28
14032 17536 17540 28
14033 17541 17542 28
14034 17541 17543 28
14035 17541 17544 28
14036 17541 17545 28
14037 17546 17547 28
14038 17546 17548 28
14039 17546 17549 28
14040 17546 17550 28
14041 17551 17552 28
14042 17551 17553 28
14043 17551 17554 28
14044 17551 17555 28
14045 17556 17557 28
14046 17556 17558 28
14047 17556 17559 28
14048 17556 17560 28
14049 17561 17562 28
14050 17561 17563 28
14051 17561 17564 28
14052 17561 17565 28
14053 17566 17567 28
14054 17566 17568 28
14055 17566 17569 28
14056 17566 17570 28
14057 17571 17572 28
14058 17571 17573 28
14059 17571 17574 28
14060 17571 17575 28
14061 17576 17577 28
14062 17576 17578 28
14063 17576 17579 28
14064 17576 17580 28
14065 17581 17582 28
14066 17581 17583 28
14067 17581 17584 28
14068 17581 17585 28
14069 17586 17587 28
14070 17586 17588 28
14071 17586 17589 28
14072 17586 17590 28
14073 17591 17592 28
14074 17591 17593 28
14075 17591 17594 28
14076 17591 17595 28
14077 17596 17597 28
14078 17596 17598 28
14079 17596 17599 28
14080 17596 17600 28
14081 17601 17602 28
14082 17601 17603 28
14083 17601 17604 28
14084 17601 17605 28
14085 17606 17607 28
14086 17606 17608 28
14087 17606 17609 28
14088 17606 17610 28
14089 17611 17612 28
14090 17611 17613 28
14091 17611 17614 28
14092 17611 17615 28
14093 17616 17617 28
14094 17616 17618 28
14095 17616 17619 28
14096 17616 17620 28
14097 17621 17622 28
14098 17621 17623 28
14099 17621 17624 28
14100 17621 17625 28
14101 17626 17627 28
14102 17626 17628 28
14103 17626 17629 28
14104 17626 17630 28
14105 17631 17632 28
14106 17631 17633 28
14107 17631 17634 28
14108 17631 17635 28
14109 17636 17637 28
14110 17636 17638 28
14111 17636 17639 28
14112 17636 17640 28
14113 17641 17642 28
14114 17641 17643 28
14115 17641 17644 28
14116 17641 17645 28
14117 17646 17647 28
14118 17646 17648 28
14119 17646 17649 28
14120 17646 17650 28
14121 17651 17652 28
14122 17651 17653 28
14123 17651 17654 28
14124 17651 17655 28
14125 17656 17657 28
14126 17656 17658 28
14127 17656 17659 28
14128 17656 17660 28
14129 17661 17662 28
14130 17661 17663 28
14131 17661 17664 28
14132 17661 17665 28
14133 17666 17667 28
14134 17666 17668 28
14135 17666 17669 28
14136 17666 17670 28
14137 17671 17672 28
14138 17671 17673 28
14139 17671 17674 28
14140 17671 17675 28
14141 17676 17677 28
14142 17676 17678 28
14143 17676 17679 28
14144 17676 17680 28
14145 17681 17682 28
14146 17681 17683 28
14147 17681 17684 28
14148 17681 17685 28
14149 17686 17687 28
14150 17686 17688 28
14151 17686 17689 28
14152 17686 17690 28
14153 17691 17692 28
14154 17691 17693 28
14155 17691 17694 28
14156 17691 17695 28
14157 17696 17697 28
14158 17696 17698 28
14159 17696 17699 28
14160 17696 17700 28
14161 17701 17702 28
14162 17701 17703 28
14163 17701 17704 28
14164 17701 17705 28
14165 17706 17707 28
14166 17706 17708 28
14167 17706 17709 28
14168 17706 17710 28
14169 17711 17712 28
14170 17711 17713 28
14171 17711 17714 28
14172 17711 17715 28
14173 17716 17717 28
14174 17716 17718 28
14175 17716 17719 28
14176 17716 17720 28
14177 17721 17722 28
14178 17721 17723 28
14179 17721 17724 28
14180 17721 17725 28
14181 17726 17727 28
14182 17726 17728 28
14183 17726 17729 28
14184 17726 17730 28
14185 17731 17732 28
14186 17731 17733 28
14187 17731 17734 28
14188 17731 17735 28
14189 17736 17737 28
14190 17736 17738 28
14191 17736 17739 28
14192 17736 17740 28
14193 17741 17742 28
14194 17741 17743 28
14195 17741 17744 28
14196 17741 17745 28
14197 17746 17747 28
14198 17746 17748 28
14199 17746 17749 28
14200 17746 17750 28
14201 17751 17752 28
14202 17751 17753 28
14203 17751 17754 28
14204 17751 17755 28
14205 17756 17757 28
14206 17756 17758 28
14207 17756 17759 28
14208 17756 17760 28
14209 17761 17762 28
14210 17761 17763 28
14211 17761 17764 28
14212 17761 17765 28
14213 17766 17767 28
14214 17766 17768 28
14215 17766 17769 28
14216 17766 17770 28
14217 17771 17772 28
14218 17771 17773 28
14219 17771 17774 28
14220 17771 17775 28
14221 17776 17777 28
14222 17776 17778 28
14223 17776 17779 28
14224 17776 17780 28
14225 17781 17782 28
14226 17781 17783 28
14227 17781 17784 28
14228 17781 17785 28
14229 17786 17787 28
14230 17786 17788 28
14231 17786 17789 28
14232 17786 17790 28
14233 17791 17792 28
14234 17791 17793 28
14235 17791 17794 28
14236 17791 17795 28
14237 17796 17797 28
14238 17796 17798 28
14239 17796 17799 28
14240 17796 17800 28
14241 17801 17802 28
14242 17801 17803 28
14243 17801 17804 28
14244 17801 17805 28
14245 17806 17807 28
14246 17806 17808 28
14247 17806 17809 28
14248 17806 17810 28
14249 17811 17812 28
14250 17811 17813 28
14251 17811 17814 28
14252 17811 17815 28
14253 17816 17817 28
14254 17816 17818 28
14255 17816 17819 28
14256 17816 17820 28
14257 17821 17822 28
14258 17821 17823 28
14259 17821 17824 28
14260 17821 17825 28
14261 17826 17827 28
14262 17826 17828 28
14263 17826 17829 28
14264 17826 17830 28
14265 17831 17832 28
14266 17831 17833 28
14267 17831 17834 28
14268 17831 17835 28
14269 17836 17837 28
14270 17836 17838 28
14271 17836 17839 28
14272 17836 17840 28
14273 17841 17842 28
14274 17841 17843 28
14275 17841 17844 28
14276 17841 17845 28
14277 17846 17847 28
14278 17846 17848 28
14279 17846 17849 28
14280 17846 17850 28
14281 17851 17852 28
14282 17851 17853 28
14283 17851 17854 28
14284 17851 17855 28
14285 17856 17857 28
14286 17856 17858 28
14287 17856 17859 28
14288 17856 17860 28
14289 17861 17862 28
14290 17861 17863 28
14291 17861 17864 28
14292 17861 17865 28
14293 17866 17867 28
14294 17866 17868 28
14295 17866 17869 28
14296 17866 17870 28
14297 17871 17872 28
14298 17871 17873 28
14299 17871 17874 28
14300 17871 17875 28
14301 17876 17877 28
14302 17876 17878 28
14303 17876 17879 28
14304 17876 17880 28
14305 17881 17882 28
14306 17881 17883 28
14307 17881 17884 28
14308 17881 17885 28
14309 17886 17887 28
14310 17886 17888 28
14311 17886 17889 28
14312 17886 17890 28
14313 17891 17892 28
14314 17891 17893 28
14315 17891 17894 28
14316 17891 17895 28
14317 17896 17897 28
14318 17896 17898 28
14319 17896 17899 28
14320 17896 17900 28
14321 17901 17902 28
14322 17901 17903 28
14323 17901 17904 28
14324 17901 17905 28
14325 17906 17907 28
14326 17906 17908 28
14327 17906 17909 28
14328 17906 17910 28
14329 17911 17912 28
14330 17911 17913 28
14331 17911 17914 28
14332 17911 17915 28
14333 17916 17917 28
14334 17916 17918 28
14335 17916 17919 28
14336 17916 17920 28
14337 17921 17922 28
14338 17921 17923 28
14339 17921 17924 28
14340 17921 17925 28
14341 17926 17927 28
14342 17926 17928 28
14343 17926 17929 28
14344 17926 17930 28
14345 17931 17932 28
14346 17931 17933 28
14347 17931 17934 28
14348 17931 17935 28
14349 17936 17937 28
14350 17936 17938 28
14351 17936 17939 28
14352 17936 17940 28
14353 17941 17942 28
14354 17941 17943 28
14355 17941 17944 28
14356 17941 17945 28
14357 17946 17947 28
14358 17946 17948 28
14359 17946 17949 28
14360 17946 17950 28
14361 17951 17952 28
14362 17951 17953 28
14363 17951 17954 28
14364 17951 17955 28
14365 17956 17957 28
14366 17956 17958 28
14367 17956 17959 28
14368 17956 17960 28
14369 17961 17962 28
14370 17961 17963 28
14371 17961 17964 28
14372 17961 17965 28
14373 17966 17967 28
14374 17966 17968 28
14375 17966 17969 28
14376 17966 17970 28
14377 17971 17972 28
14378 17971 17973 28
14379 17971 17974 28
14380 17971 17975 28
14381 17976 17977 28
14382 17976 17978 28
14383 17976 17979 28
14384 17976 17980 28
14385 17981 17982 28
14386 17981 17983 28
14387 17981 17984 28
14388 17981 17985 28
14389 17986 17987 28
14390 17986 17988 28
14391 17986 17989 28
14392 17986 17990 28
14393 17991 17992 28
14394 17991 17993 28
14395 17991 17994 28
14396 17991 17995 28
14397 17996 17997 28
14398 17996 17998 28
14399 17996 17999 28
14400 17996 18000 28
14401 18001 18002 28
14402 18001 18003 28
14403 18001 18004 28
14404 18001 18005 28
14405 18006 18007 28
14406 18006 18008 28
14407 18006 18009 28
14408 18006 18010 28
14409 18011 18012 28
14410 18011 18013 28
14411 18011 18014 28
14412 18011 18015 28
14413 18016 18017 28
14414 18016 18018 28
14415 18016 18019 28
14416 18016 18020 28
14417 18021 18022 28
14418 18021 18023 28
14419 18021 18024 28
14420 18021 18025 28
14421 18026 18027 28
14422 18026 18028 28
14423 18026 18029 28
14424 18026 18030 28
14425 18031 18032 28
14426 18031 18033 28
14427 18031 18034 28
14428 18031 18035 28
14429 18036 18037 28
14430 18036 18038 28
14431 18036 18039 28
14432 18036 18040 28
14433 18041 18042 28
14434 18041 18043 28
14435 18041 18044 28
14436 18041 18045 28
14437 18046 18047 28
14438 18046 18048 28
14439 18046 18049 28
14440 18046 18050 28
14441 18051 18052 28
14442 18051 18053 28
14443 18051 18054 28
14444 18051 18055 28
14445 18056 18057 28
14446 18056 18058 28
14447 18056 18059 28
14448 18056 18060 28
14449 18061 18062 28
14450 18061 18063 28
14451 18061 18064 28
14452 18061 18065 28
14453 18066 18067 28
14454 18066 18068 28
14455 18066 18069 28
14456 18066 18070 28
14457 18071 18072 28
14458 18071 18073 28
14459 18071 18074 28
14460 18071 18075 28
14461 18076 18077 28
14462 18076 18078 28
14463 18076 18079 28
14464 18076 18080 28
14465 18081 18082 28
14466 18081 18083 28
14467 18081 18084 28
14468 18081 18085 28
14469 18086 18087 28
14470 18086 18088 28
14471 18086 18089 28
14472 18086 18090 28
14473 18091 18092 28
14474 18091 18093 28
14475 18091 18094 28
14476 18091 18095 28
14477 18096 18097 28
14478 18096 18098 28
14479 18096 18099 28
14480 18096 18100 28
14481 18101 18102 28
14482 18101 18103 28
14483 18101 18104 28
14484 18101 18105 28
14485 18106 18107 28
14486 18106 18108 28
14487 18106 18109 28
14488 18106 18110 28
14489 18111 18112 28
14490 18111 18113 28
14491 18111 18114 28
14492 18111 18115 28
14493 18116 18117 28
14494 18116 18118 28
14495 18116 18119 28
14496 18116 18120 28
14497 18121 18122 28
14498 18121 18123 28
14499 18121 18124 28
14500 18121 18125 28
14501 18126 18127 28
14502 18126 18128 28
14503 18126 18129 28
14504 18126 18130 28
14505 18131 18132 28
14506 18131 18133 28
14507 18131 18134 28
14508 18131 18135 28
14509 18136 18137 28
14510 18136 18138 28
14511 18136 18139 28
14512 18136 18140 28
14513 18141 18142 28
14514 18141 18143 28
14515 18141 18144 28
14516 18141 18145 28
14517 18146 18147 28
14518 18146 18148 28
14519 18146 18149 28
14520 18146 18150 28
14521 18151 18152 28
14522 18151 18153 28
14523 18151 18154 28
14524 18151 18155 28
14525 18156 18157 28
14526 18156 18158 28
14527 18156 18159 28
14528 18156 18160 28
14529 18161 18162 28
14530 18161 18163 28
14531 18161 18164 28
14532 18161 18165 28
14533 18166 18167 28
14534 18166 18168 28
14535 18166 18169 28
14536 18166 18170 28
14537 18171 18172 28
14538 18171 18173 28
14539 18171 18174 28
14540 18171 18175 28
14541 18176 18177 28
14542 18176 18178 28
14543 18176 18179 28
14544 18176 18180 28
14545 18181 18182 28
14546 18181 18183 28
14547 18181 18184 28
14548 18181 18185 28
14549 18186 18187 28
14550 18186 18188 28
14551 18186 18189 28
14552 18186 18190 28
14553 18191 18192 28
14554 18191 18193 28
14555 18191 18194 28
14556 18191 18195 28
14557 18196 18197 28
14558 18196 18198 28
14559 18196 18199 28
14560 18196 18200 28
14561 18201 18202 28
14562 18201 18203 28
14563 18201 18204 28
14564 18201 18205 28
14565 18206 18207 28
14566 18206 18208 28
14567 18206 18209 28
14568 18206 18210 28
14569 18211 18212 28
14570 18211 18213 28
14571 18211 18214 28
14572 18211 18215 28
14573 18216 18217 28
14574 18216 18218 28
14575 18216 18219 28
14576 18216 18220 28
14577 18221 18222 28
14578 18221 18223 28
14579 18221 18224 28
14580 18221 18225 28
14581 18226 18227 28
14582 18226 18228 28
14583 18226 18229 28
14584 18226 18230 28
14585 18231 18232 28
14586 18231 18233 28
14587 18231 18234 28
14588 18231 18235 28
14589 18236 18237 28
14590 18236 18238 28
14591 18236 18239 28
14592 18236 18240 28
14593 18241 18242 28
14594 18241 18243 28
14595 18241 18244 28
14596 18241 18245 28
14597 18246 18247 28
14598 18246 18248 28
14599 18246 18249 28
14600 18246 18250 28
14601 18251 18252 28
14602 18251 18253 28
14603 18251 18254 28
14604 18251 18255 28
14605 18256 18257 28
14606 18256 18258 28
14607 18256 18259 28
14608 18256 18260 28
14609 18261 18262 28
14610 18261 18263 28
14611 18261 18264 28
14612 18261 18265 28
14613 18266 18267 28
14614 18266 18268 28
14615 18266 18269 28
14616 18266 18270 28
14617 18271 18272 28
14618 18271 18273 28
14619 18271 18274 28
14620 18271 18275 28
14621 18276 18277 28
14622 18276 18278 28
14623 18276 18279 28
14624 18276 18280 28
14625 18281 18282 28
14626 18281 18283 28
14627 18281 18284 28
14628 18281 18285 28
14629 18286 18287 28
14630 18286 18288 28
14631 18286 18289 28
14632 18286 18290 28
14633 18291 18292 28
14634 18291 18293 28
14635 18291 18294 28
14636 18291 18295 28
14637 18296 18297 28
14638 18296 18298 28
14639 18296 18299 28
14640 18296 18300 28
14641 18301 18302 28
14642 18301 18303 28
14643 18301 18304 28
14644 18301 18305 28
14645 18306 18307 28
14646 18306 18308 28
14647 18306 18309 28
14648 18306 18310 28
14649 18311 18312 28
14650 18311 18313 28
14651 18311 18314 28
14652 18311 18315 28
14653 18316 18317 28
14654 18316 18318 28
14655 18316 18319 28
14656 18316 18320 28
14657 18321 18322 28
14658 18321 18323 28
14659 18321 18324 28
14660 18321 18325 28
14661 18326 18327 28
14662 18326 18328 28
14663 18326 18329 28
14664 18326 18330 28
14665 18331 18332 28
14666 18331 18333 28
14667 18331 18334 28
14668 18331 18335 28
14669 18336 18337 28
14670 18336 18338 28
14671 18336 18339 28
14672 18336 18340 28
14673 18341 18342 28
14674 18341 18343 28
14675 18341 18344 28
14676 18341 18345 28
14677 18346 18347 28
14678 18346 18348 28
14679 18346 18349 28
14680 18346 18350 28
14681 18351 18352 28
14682 18351 18353 28
14683 18351 18354 28
14684 18351 18355 28
14685 18356 18357 28
14686 18356 18358 28
14687 18356 18359 28
14688 18356 18360 28
14689 18361 18362 28
14690 18361 18363 28
14691 18361 18364 28
14692 18361 18365 28
14693 18366 18367 28
14694 18366 18368 28
14695 18366 18369 28
14696 18366 18370 28
14697 18371 18372 28
14698 18371 18373 28
14699 18371 18374 28
14700 18371 18375 28
14701 18376 18377 28
14702 18376 18378 28
14703 18376 18379 28
14704 18376 18380 28
14705 18381 18382 28
14706 18381 18383 28
14707 18381 18384 28
14708 18381 18385 28
14709 18386 18387 28
14710 18386 18388 28
14711 18386 18389 28
14712 18386 18390 28
14713 18391 18392 28
14714 18391 18393 28
14715 18391 18394 28
14716 18391 18395 28
14717 18396 18397 28
14718 18396 18398 28
14719 18396 18399 28
14720 18396 18400 28
14721 18401 18402 28
14722 18401 18403 28
14723 18401 18404 28
14724 18401 18405 28
14725 18406 18407 28
14726 18406 18408 28
14727 18406 18409 28
14728 18406 18410 28
14729 18411 18412 28
14730 18411 18413 28
14731 18411 18414 28
14732 18411 18415 28
14733 18416 18417 28
14734 18416 18418 28
14735 18416 18419 28
14736 18416 18420 28
14737 18421 18422 28
14738 18421 18423 28
14739 18421 18424 28
14740 18421 18425 28
14741 18426 18427 28
14742 18426 18428 28
14743 18426 18429 28
14744 18426 18430 28
14745 18431 18432 28
14746 18431 18433 28
14747 18431 18434 28
14748 18431 18435 28
14749 18436 18437 28
14750 18436 18438 28
14751 18436 18439 28
14752 18436 18440 28
14753 18441 18442 28
14754 18441 18443 28
14755 18441 18444 28
14756 18441 18445 28
14757 18446 18447 28
14758 18446 18448 28
14759 18446 18449 28
14760 18446 18450 28
14761 18451 18452 28
14762 18451 18453 28
14763 18451 18454 28
14764 18451 18455 28
14765 18456 18457 28
14766 18456 18458 28
14767 18456 18459 28
14768 18456 18460 28
14769 18461 18462 28
14770 18461 18463 28
14771 18461 18464 28
14772 18461 18465 28
14773 18466 18467 28
14774 18466 18468 28
14775 18466 18469 28
14776 18466 18470 28
14777 18471 18472 28
14778 18471 18473 28
14779 18471 18474 28
14780 18471 18475 28
14781 18476 18477 28
14782 18476 18478 28
14783 18476 18479 28
14784 18476 18480 28
14785 18481 18482 28
14786 18481 18483 28
14787 18481 18484 28
14788 18481 18485 28
14789 18486 18487 28
14790 18486 18488 28
14791 18486 18489 28
14792 18486 18490 28
14793 18491 18492 28
14794 18491 18493 28
14795 18491 18494 28
14796 18491 18495 28
14797 18496 18497 28
14798 18496 18498 28
14799 18496 18499 28
14800 18496 18500 28
14801 18501 18502 28
14802 18501 18503 28
14803 18501 18504 28
14804 18501 18505 28
14805 18506 18507 28
14806 18506 18508 28
14807 18506 18509 28
14808 18506 18510 28
14809 18511 18512 28
14810 18511 18513 28
14811 18511 18514 28
14812 18511 18515 28
14813 18516 18517 28
14814 18516 18518 28
14815 18516 18519 28
14816 18516 18520 28
14817 18521 18522 28
14818 18521 18523 28
14819 18521 18524 28
14820 18521 18525 28
14821 18526 18527 28
14822 18526 18528 28
14823 18526 18529 28
14824 18526 18530 28
14825 18531 18532 28
14826 18531 18533 28
14827 18531 18534 28
14828 18531 18535 28
14829 18536 18537 28
14830 18536 18538 28
14831 18536 18539 28
14832 18536 18540 28
14833 18541 18542 28
14834 18541 18543 28
14835 18541 18544 28
14836 18541 18545 28
14837 18546 18547 28
14838 18546 18548 28
14839 18546 18549 28
14840 18546 18550 28
14841 18551 18552 28
14842 18551 18553 28
14843 18551 18554 28
14844 18551 18555 28
14845 18556 18557 28
14846 18556 18558 28
14847 18556 18559 28
14848 18556 18560 28
14849 18561 18562 28
14850 18561 18563 28
14851 18561 18564 28
14852 18561 18565 28
14853 18566 18567 28
14854 18566 18568 28
14855 18566 18569 28
14856 18566 18570 28
14857 18571 18572 28
14858 18571 18573 28
14859 18571 18574 28
14860 18571 18575 28
14861 18576 18577 28
14862 18576 18578 28
14863 18576 18579 28
14864 18576 18580 28
14865 18581 18582 28
14866 18581 18583 28
14867 18581 18584 28
14868 18581 18585 28
14869 18586 18587 28
14870 18586 18588 28
14871 18586 18589 28
14872 18586 18590 28
14873 18591 18592 28
14874 18591 18593 28
14875 18591 18594 28
14876 18591 18595 28
14877 18596 18597 28
14878 18596 18598 28
14879 18596 18599 28
14880 18596 18600 28
14881 18601 18602 28
14882 18601 18603 28
14883 18601 18604 28
14884 18601 18605 28
14885 18606 18607 28
14886 18606 18608 28
14887 18606 18609 28
14888 18606 18610 28
14889 18611 18612 28
14890 18611 18613 28
14891 18611 18614 28
14892 18611 18615 28
14893 18616 18617 28
14894 18616 18618 28
14895 18616 18619 28
14896 18616 18620 28
14897 18621 18622 28
14898 18621 18623 28
14899 18621 18624 28
14900 18621 18625 28
14901 18626 18627 28
14902 18626 18628 28
14903 18626 18629 28
14904 18626 18630 28
14905 18631 18632 28
14906 18631 18633 28
14907 18631 18634 28
14908 18631 18635 28
14909 18636 18637 28
14910 18636 18638 28
14911 18636 18639 28
14912 18636 18640 28
14913 18641 18642 28
14914 18641 18643 28
14915 18641 18644 28
14916 18641 18645 28
14917 18646 18647 28
14918 18646 18648 28
14919 18646 18649 28
14920 18646 18650 28
14921 18651 18652 28
14922 18651 18653 28
14923 18651 18654 28
14924 18651 18655 28
14925 18656 18657 28
14926 18656 18658 28
14927 18656 18659 28
14928 18656 18660 28
14929 18661 18662 28
14930 18661 18663 28
14931 18661 18664 28
14932 18661 18665 28
14933 18666 18667 28
14934 18666 18668 28
14935 18666 18669 28
14936 18666 18670 28
14937 18671 18672 28
14938 18671 18673 28
14939 18671 18674 28
14940 18671 18675 28
14941 18676 18677 28
14942 18676 18678 28
14943 18676 18679 28
14944 18676 18680 28
14945 18681 18682 28
14946 18681 18683 28
14947 18681 18684 28
14948 18681 18685 28
14949 18686 18687 28
14950 18686 18688 28
14951 18686 18689 28
14952 18686 18690 28
14953 18691 18692 28
14954 18691 18693 28
14955 18691 18694 28
14956 18691 18695 28
14957 18696 18697 28
14958 18696 18698 28
14959 18696 18699 28
14960 18696 18700 28
14961 18701 18702 28
14962 18701 18703 28
14963 18701 18704 28
14964 18701 18705 28
14965 18706 18707 28
14966 18706 18708 28
14967 18706 18709 28
14968 18706 18710 28
14969 18711 18712 28
14970 18711 18713 28
14971 18711 18714 28
14972 18711 18715 28
14973 18716 18717 28
14974 18716 18718 28
14975 18716 18719 28
14976 18716 18720 28
14977 18721 18722 28
14978 18721 18723 28
14979 18721 18724 28
14980 18721 18725 28
14981 18726 18727 28
14982 18726 18728 28
14983 18726 18729 28
14984 18726 18730 28
14985 18731 18732 28
14986 18731 18733 28
14987 18731 18734 28
14988 18731 18735 28
14989 18736 18737 28
14990 18736 18738 28
14991 18736 18739 28
14992 18736 18740 28
14993 18741 18742 28
14994 18741 18743 28
14995 18741 18744 28
14996 18741 18745 28
14997 18746 18747 28
14998 18746 18748 28
14999 18746 18749 28
15000 18746 18750 28
15001 18751 18752 28
15002 18751 18753 28
15003 18751 18754 28
15004 18751 18755 28
15005 18756 18757 28
15006 18756 18758 28
15007 18756 18759 28
15008 18756 18760 28
15009 18761 18762 28
15010 18761 18763 28
15011 18761 18764 28
15012 18761 18765 28
15013 18766 18767 28
15014 18766 18768 28
15015 18766 18769 28
15016 18766 18770 28
15017 18771 18772 28
15018 18771 18773 28
15019 18771 18774 28
15020 18771 18775 28
15021 18776 18777 28
15022 18776 18778 28
15023 18776 18779 28
15024 18776 18780 28
15025 18781 18782 28
15026 18781 18783 28
15027 18781 18784 28
15028 18781 18785 28
15029 18786 18787 28
15030 18786 18788 28
15031 18786 18789 28
15032 18786 18790 28
15033 18791 18792 28
15034 18791 18793 28
15035 18791 18794 28
15036 18791 18795 28
15037 18796 18797 28
15038 18796 18798 28
15039 18796 18799 28
15040 18796 18800 28
15041 18801 18802 28
15042 18801 18803 28
15043 18801 18804 28
15044 18801 18805 28
15045 18806 18807 28
15046 18806 18808 28
15047 18806 18809 28
15048 18806 18810 28
15049 18811 18812 28
15050 18811 18813 28
15051 18811 18814 28
15052 18811 18815 28
15053 18816 18817 28
15054 18816 18818 28
15055 18816 18819 28
15056 18816 18820 28
15057 18821 18822 28
15058 18821 18823 28
15059 18821 18824 28
15060 18821 18825 28
15061 18826 18827 28
15062 18826 18828 28
15063 18826 18829 28
15064 18826 18830 28
15065 18831 18832 28
15066 18831 18833 28
15067 18831 18834 28
15068 18831 18835 28
15069 18836 18837 28
15070 18836 18838 28
15071 18836 18839 28
15072 18836 18840 28
15073 18841 18842 28
15074 18841 18843 28
15075 18841 18844 28
15076 18841 18845 28
15077 18846 18847 28
15078 18846 18848 28
15079 18846 18849 28
15080 18846 18850 28
15081 18851 18852 28
15082 18851 18853 28
15083 18851 18854 28
15084 18851 18855 28
15085 18856 18857 28
15086 18856 18858 28
15087 18856 18859 28
15088 18856 18860 28
15089 18861 18862 28
15090 18861 18863 28
15091 18861 18864 28
15092 18861 18865 28
15093 18866 18867 28
15094 18866 18868 28
15095 18866 18869 28
15096 18866 18870 28
15097 18871 18872 28
15098 18871 18873 28
15099 18871 18874 28
15100 18871 18875 28
15101 18876 18877 28
15102 18876 18878 28
15103 18876 18879 28
15104 18876 18880 28
15105 18881 18882 28
15106 18881 18883 28
15107 18881 18884 28
15108 18881 18885 28
15109 18886 18887 28
15110 18886 18888 28
15111 18886 18889 28
15112 18886 18890 28
15113 18891 18892 28
15114 18891 18893 28
15115 18891 18894 28
15116 18891 18895 28
15117 18896 18897 28
15118 18896 18898 28
15119 18896 18899 28
15120 18896 18900 28
15121 18901 18902 28
15122 18901 18903 28
15123 18901 18904 28
15124 18901 18905 28
15125 18906 18907 28
15126 18906 18908 28
15127 18906 18909 28
15128 18906 18910 28
15129 18911 18912 28
15130 18911 18913 28
15131 18911 18914 28
15132 18911 18915 28
15133 18916 18917 28
15134 18916 18918 28
15135 18916 18919 28
15136 18916 18920 28
15137 18921 18922 28
15138 18921 18923 28
15139 18921 18924 28
15140 18921 18925 28
15141 18926 18927 28
15142 18926 18928 28
15143 18926 18929 28
15144 18926 18930 28
15145 18931 18932 28
15146 18931 18933 28
15147 18931 18934 28
15148 18931 18935 28
15149 18936 18937 28
15150 18936 18938 28
15151 18936 18939 28
15152 18936 18940 28
15153 18941 18942 28
15154 18941 18943 28
15155 18941 18944 28
15156 18941 18945 28
15157 18946 18947 28
15158 18946 18948 28
15159 18946 18949 28
15160 18946 18950 28
15161 18951 18952 28
15162 18951 18953 28
15163 18951 18954 28
15164 18951 18955 28
15165 18956 18957 28
15166 18956 18958 28
15167 18956 18959 28
15168 18956 18960 28
15169 18961 18962 28
15170 18961 18963 28
15171 18961 18964 28
15172 18961 18965 28
15173 18966 18967 28
15174 18966 18968 28
15175 18966 18969 28
15176 18966 18970 28
15177 18971 18972 28
15178 18971 18973 28
15179 18971 18974 28
15180 18971 18975 28
15181 18976 18977 28
15182 18976 18978 28
15183 18976 18979 28
15184 18976 18980 28
15185 18981 18982 28
15186 18981 18983 28
15187 18981 18984 28
15188 18981 18985 28
15189 18986 18987 28
15190 18986 18988 28
15191 18986 18989 28
15192 18986 18990 28
15193 18991 18992 28
15194 18991 18993 28
15195 18991 18994 28
15196 18991 18995 28
15197 18996 18997 28
15198 18996 18998 28
15199 18996 18999 28
15200 18996 19000 28
15201 19001 19002 28
15202 19001 19003 28
15203 19001 19004 28
15204 19001 19005 28
15205 19006 19007 28
15206 19006 19008 28
15207 19006 19009 28
15208 19006 19010 28
15209 19011 19012 28
15210 19011 19013 28
15211 19011 19014 28
15212 19011 19015 28
15213 19016 19017 28
15214 19016 19018 28
15215 19016 19019 28
15216 19016 19020 28
15217 19021 19022 28
15218 19021 19023 28
15219 19021 19024 28
15220 19021 19025 28
15221 19026 19027 28
15222 19026 19028 28
15223 19026 19029 28
15224 19026 19030 28
15225 19031 19032 28
15226 19031 19033 28
15227 19031 19034 28
15228 19031 19035 28
15229 19036 19037 28
15230 19036 19038 28
15231 19036 19039 28
15232 19036 19040 28
15233 19041 19042 28
15234 19041 19043 28
15235 19041 19044 28
15236 19041 19045 28
15237 19046 19047 28
15238 19046 19048 28
15239 19046 19049 28
15240 19046 19050 28
15241 19051 19052 28
15242 19051 19053 28
15243 19051 19054 28
15244 19051 19055 28
15245 19056 19057 28
15246 19056 19058 28
15247 19056 19059 28
15248 19056 19060 28
15249 19061 19062 28
15250 19061 19063 28
15251 19061 19064 28
15252 19061 19065 28
15253 19066 19067 28
15254 19066 19068 28
15255 19066 19069 28
15256 19066 19070 28
15257 19071 19072 28
15258 19071 19073 28
15259 19071 19074 28
15260 19071 19075 28
15261 19076 19077 28
15262 19076 19078 28
15263 19076 19079 28
15264 19076 19080 28
15265 19081 19082 28
15266 19081 19083 28
15267 19081 19084 28
15268 19081 19085 28
15269 19086 19087 28
15270 19086 19088 28
15271 19086 19089 28
15272 19086 19090 28
15273 19091 19092 28
15274 19091 19093 28
15275 19091 19094 28
15276 19091 19095 28
15277 19096 19097 28
15278 19096 19098 28
15279 19096 19099 28
15280 19096 19100 28
15281 19101 19102 28
15282 19101 19103 28
15283 19101 19104 28
15284 19101 19105 28
15285 19106 19107 28
15286 19106 19108 28
15287 19106 19109 28
15288 19106 19110 28
15289 19111 19112 28
15290 19111 19113 28
15291 19111 19114 28
15292 19111 19115 28
15293 19116 19117 28
15294 19116 19118 28
15295 19116 19119 28
15296 19116 19120 28
15297 19121 19122 28
15298 19121 19123 28
15299 19121 19124 28
15300 19121 19125 28
15301 19126 19127 28
15302 19126 19128 28
15303 19126 19129 28
15304 19126 19130 28
15305 19131 19132 28
15306 19131 19133 28
15307 19131 19134 28
15308 19131 19135 28
15309 19136 19137 28
15310 19136 19138 28
15311 19136 19139 28
15312 19136 19140 28
15313 19141 19142 28
15314 19141 19143 28
15315 19141 19144 28
15316 19141 19145 28
15317 19146 19147 28
15318 19146 19148 28
15319 19146 19149 28
15320 19146 19150 28
15321 19151 19152 28
15322 19151 19153 28
15323 19151 19154 28
15324 19151 19155 28
15325 19156 19157 28
15326 19156 19158 28
15327 19156 19159 28
15328 19156 19160 28
15329 19161 19162 28
15330 19161 19163 28
15331 19161 19164 28
15332 19161 19165 28
15333 19166 19167 28
15334 19166 19168 28
15335 19166 19169 28
15336 19166 19170 28
15337 19171 19172 28
15338 19171 19173 28
15339 19171 19174 28
15340 19171 19175 28
15341 19176 19177 28
15342 19176 19178 28
15343 19176 19179 28
15344 19176 19180 28
15345 19181 19182 28
15346 19181 19183 28
15347 19181 19184 28
15348 19181 19185 28
15349 19186 19187 28
15350 19186 19188 28
15351 19186 19189 28
15352 19186 19190 28
15353 19191 19192 28
15354 19191 19193 28
15355 19191 19194 28
15356 19191 19195 28
15357 19196 19197 28
15358 19196 19198 28
15359 19196 19199 28
15360 19196 19200 28
15361 19201 19202 28
15362 19201 19203 28
15363 19201 19204 28
15364 19201 19205 28
15365 19206 19207 28
15366 19206 19208 28
15367 19206 19209 28
15368 19206 19210 28
15369 19211 19212 28
15370 19211 19213 28
15371 19211 19214 28
15372 19211 19215 28
15373 19216 19217 28
15374 19216 19218 28
15375 19216 19219 28
15376 19216 19220 28
15377 19221 19222 28
15378 19221 19223 28
15379 19221 19224 28
15380 19221 19225 28
15381 19226 19227 28
15382 19226 19228 28
15383 19226 19229 28
15384 19226 19230 28
15385 19231 19232 28
15386 19231 19233 28
15387 19231 19234 28
15388 19231 19235 28
15389 19236 19237 28
15390 19236 19238 28
15391 19236 19239 28
15392 19236 19240 28
15393 19241 19242 28
15394 19241 19243 28
15395 19241 19244 28
15396 19241 19245 28
15397 19246 19247 28
15398 19246 19248 28
15399 19246 19249 28
15400 19246 19250 28
15401 19251 19252 28
15402 19251 19253 28
15403 19251 19254 28
15404 19251 19255 28
15405 19256 19257 28
15406 19256 19258 28
15407 19256 19259 28
15408 19256 19260 28
15409 19261 19262 28
15410 19261 19263 28
15411 19261 19264 28
15412 19261 19265 28
15413 19266 19267 28
15414 19266 19268 28
15415 19266 19269 28
15416 19266 19270 28
15417 19271 19272 28
15418 19271 19273 28
15419 19271 19274 28
15420 19271 19275 28
15421 19276 19277 28
15422 19276 19278 28
15423 19276 19279 28
15424 19276 19280 28
15425 19281 19282 28
15426 19281 19283 28
15427 19281 19284 28
15428 19281 19285 28
15429 19286 19287 28
15430 19286 19288 28
15431 19286 19289 28
15432 19286 19290 28
15433 19291 19292 28
15434 19291 19293 28
15435 19291 19294 28
15436 19291 19295 28
15437 19296 19297 28
15438 19296 19298 28
15439 19296 19299 28
15440 19296 19300 28
15441 19301 19302 28
15442 19301 19303 28
15443 19301 19304 28
15444 19301 19305 28
15445 19306 19307 28
15446 19306 19308 28
15447 19306 19309 28
15448 19306 19310 28
15449 19311 19312 28
15450 19311 19313 28
15451 19311 19314 28
15452 19311 19315 28
15453 19316 19317 28
15454 19316 19318 28
15455 19316 19319 28
15456 19316 19320 28
15457 19321 19322 28
15458 19321 19323 28
15459 19321 19324 28
15460 19321 19325 28
15461 19326 19327 28
15462 19326 19328 28
15463 19326 19329 28
15464 19326 19330 28
15465 19331 19332 28
15466 19331 19333 28
15467 19331 19334 28
15468 19331 19335 28
15469 19336 19337 28
15470 19336 19338 28
15471 19336 19339 28
15472 19336 19340 28
15473 19341 19342 28
15474 19341 19343 28
15475 19341 19344 28
15476 19341 19345 28
15477 19346 19347 28
15478 19346 19348 28
15479 19346 19349 28
15480 19346 19350 28
15481 19351 19352 28
15482 19351 19353 28
15483 19351 19354 28
15484 19351 19355 28
15485 19356 19357 28
15486 19356 19358 28
15487 19356 19359 28
15488 19356 19360 28
15489 19361 19362 28
15490 19361 19363 28
15491 19361 19364 28
15492 19361 19365 28
15493 19366 19367 28
15494 19366 19368 28
15495 19366 19369 28
15496 19366 19370 28
15497 19371 19372 28
15498 19371 19373 28
15499 19371 19374 28
15500 19371 19375 28
15501 19376 19377 28
15502 19376 19378 28
15503 19376 19379 28
15504 19376 19380 28
15505 19381 19382 28
15506 19381 19383 28
15507 19381 19384 28
15508 19381 19385 28
15509 19386 19387 28
15510 19386 19388 28
15511 19386 19389 28
15512 19386 19390 28
15513 19391 19392 28
15514 19391 19393 28
15515 19391 19394 28
15516 19391 19395 28
15517 19396 19397 28
15518 19396 19398 28
15519 19396 19399 28
15520 19396 19400 28
15521 19401 19402 28
15522 19401 19403 28
15523 19401 19404 28
15524 19401 19405 28
15525 19406 19407 28
15526 19406 19408 28
15527 19406 19409 28
15528 19406 19410 28
15529 19411 19412 28
15530 19411 19413 28
15531 19411 19414 28
15532 19411 19415 28
15533 19416 19417 28
15534 19416 19418 28
15535 19416 19419 28
15536 19416 19420 28
15537 19421 19422 28
15538 19421 19423 28
15539 19421 19424 28
15540 19421 19425 28
15541 19426 19427 28
15542 19426 19428 28
15543 19426 19429 28
15544 19426 19430 28
15545 19431 19432 28
15546 19431 19433 28
15547 19431 19434 28
15548 19431 19435 28
15549 19436 19437 28
15550 19436 19438 28
15551 19436 19439 28
15552 19436 19440 28
15553 19441 19442 28
15554 19441 19443 28
15555 19441 19444 28
15556 19441 19445 28
15557 19446 19447 28
15558 19446 19448 28
15559 19446 19449 28
15560 19446 19450 28
15561 19451 19452 28
15562 19451 19453 28
15563 19451 19454 28
15564 19451 19455 28
15565 19456 19457 28
15566 19456 19458 28
15567 19456 19459 28
15568 19456 19460 28
15569 19461 19462 28
15570 19461 19463 28
15571 19461 19464 28
15572 19461 19465 28
15573 19466 19467 28
15574 19466 19468 28
15575 19466 19469 28
15576 19466 19470 28
15577 19471 19472 28
15578 19471 19473 28
15579 19471 19474 28
15580 19471 19475 28
15581 19476 19477 28
15582 19476 19478 28
15583 19476 19479 28
15584 19476 19480 28
15585 19481 19482 28
15586 19481 19483 28
15587 19481 19484 28
15588 19481 19485 28
15589 19486 19487 28
15590 19486 19488 28
15591 19486 19489 28
15592 19486 19490 28
15593 19491 19492 28
15594 19491 19493 28
15595 19491 19494 28
15596 19491 19495 28
15597 19496 19497 28
15598 19496 19498 28
15599 19496 19499 28
15600 19496 19500 28
15601 19501 19502 28
15602 19501 19503 28
15603 19501 19504 28
15604 19501 19505 28
15605 19506 19507 28
15606 19506 19508 28
15607 19506 19509 28
15608 19506 19510 28
15609 19511 19512 28
15610 19511 19513 28
15611 19511 19514 28
15612 19511 19515 28
15613 19516 19517 28
15614 19516 19518 28
15615 19516 19519 28
15616 19516 19520 28
15617 19521 19522 28
15618 19521 19523 28
15619 19521 19524 28
15620 19521 19525 28
15621 19526 19527 28
15622 19526 19528 28
15623 19526 19529 28
15624 19526 19530 28
15625 19531 19532 28
15626 19531 19533 28
15627 19531 19534 28
15628 19531 19535 28
15629 19536 19537 28
15630 19536 19538 28
15631 19536 19539 28
15632 19536 19540 28
15633 19541 19542 28
15634 19541 19543 28
15635 19541 19544 28
15636 19541 19545 28
15637 19546 19547 28
15638 19546 19548 28
15639 19546 19549 28
15640 19546 19550 28
15641 19551 19552 28
15642 19551 19553 28
15643 19551 19554 28
15644 19551 19555 28
15645 19556 19557 28
15646 19556 19558 28
15647 19556 19559 28
15648 19556 19560 28
15649 19561 19562 28
15650 19561 19563 28
15651 19561 19564 28
15652 19561 19565 28
15653 19566 19567 28
15654 19566 19568 28
15655 19566 19569 28
15656 19566 19570 28
15657 19571 19572 28
15658 19571 19573 28
15659 19571 19574 28
15660 19571 19575 28
15661 19576 19577 28
15662 19576 19578 28
15663 19576 19579 28
15664 19576 19580 28
15665 19581 19582 28
15666 19581 19583 28
15667 19581 19584 28
15668 19581 19585 28
15669 19586 19587 28
15670 19586 19588 28
15671 19586 19589 28
15672 19586 19590 28
15673 19591 19592 28
15674 19591 19593 28
15675 19591 19594 28
15676 19591 19595 28
15677 19596 19597 28
15678 19596 19598 28
15679 19596 19599 28
15680 19596 19600 28
15681 19601 19602 28
15682 19601 19603 28
15683 19601 19604 28
15684 19601 19605 28
15685 19606 19607 28
15686 19606 19608 28
15687 19606 19609 28
15688 19606 19610 28
15689 19611 19612 28
15690 19611 19613 28
15691 19611 19614 28
15692 19611 19615 28
15693 19616 19617 28
15694 19616 19618 28
15695 19616 19619 28
15696 19616 19620 28
15697 19621 19622 28
15698 19621 19623 28
15699 19621 19624 28
15700 19621 19625 28
15701 19626 19627 28
15702 19626 19628 28
15703 19626 19629 28
15704 19626 19630 28
15705 19631 19632 28
15706 19631 19633 28
15707 19631 19634 28
15708 19631 19635 28
15709 19636 19637 28
15710 19636 19638 28
15711 19636 19639 28
15712 19636 19640 28
15713 19641 19642 28
15714 19641 19643 28
15715 19641 19644 28
15716 19641 19645 28
15717 19646 19647 28
15718 19646 19648 28
15719 19646 19649 28
15720 19646 19650 28
15721 19651 19652 28
15722 19651 19653 28
15723 19651 19654 28
15724 19651 19655 28
15725 19656 19657 28
15726 19656 19658 28
15727 19656 19659 28
15728 19656 19660 28
15729 19661 19662 28
15730 19661 19663 28
15731 19661 19664 28
15732 19661 19665 28
15733 19666 19667 28
15734 19666 19668 28
15735 19666 19669 28
15736 19666 19670 28
15737 19671 19672 28
15738 19671 19673 28
15739 19671 19674 28
15740 19671 19675 28
15741 19676 19677 28
15742 19676 19678 28
15743 19676 19679 28
15744 19676 19680 28
15745 19681 19682 28
15746 19681 19683 28
15747 19681 19684 28
15748 19681 19685 28
15749 19686 19687 28
15750 19686 19688 28
15751 19686 19689 28
15752 19686 19690 28
15753 19691 19692 28
15754 19691 19693 28
15755 19691 19694 28
15756 19691 19695 28
15757 19696 19697 28
15758 19696 19698 28
15759 19696 19699 28
15760 19696 19700 28
15761 19701 19702 28
15762 19701 19703 28
15763 19701 19704 28
15764 19701 19705 28
15765 19706 19707 28
15766 19706 19708 28
15767 19706 19709 28
15768 19706 19710 28
15769 19711 19712 28
15770 19711 19713 28
15771 19711 19714 28
15772 19711 19715 28
15773 19716 19717 28
15774 19716 19718 28
15775 19716 19719 28
15776 19716 19720 28
15777 19721 19722 28
15778 19721 19723 28
15779 19721 19724 28
15780 19721 19725 28
15781 19726 19727 28
15782 19726 19728 28
15783 19726 19729 28
15784 19726 19730 28
15785 19731 19732 28
15786 19731 19733 28
15787 19731 19734 28
15788 19731 19735 28
15789 19736 19737 28
15790 19736 19738 28
15791 19736 19739 28
15792 19736 19740 28
15793 19741 19742 28
15794 19741 19743 28
15795 19741 19744 28
15796 19741 19745 28
15797 19746 19747 28
15798 19746 19748 28
15799 19746 19749 28
15800 19746 19750 28
15801 19751 19752 28
15802 19751 19753 28
15803 19751 19754 28
15804 19751 19755 28
15805 19756 19757 28
15806 19756 19758 28
15807 19756 19759 28
15808 19756 19760 28
15809 19761 19762 28
15810 19761 19763 28
15811 19761 19764 28
15812 19761 19765 28
15813 19766 19767 28
15814 19766 19768 28
15815 19766 19769 28
15816 19766 19770 28
15817 19771 19772 28
15818 19771 19773 28
15819 19771 19774 28
15820 19771 19775 28
15821 19776 19777 28
15822 19776 19778 28
15823 19776 19779 28
15824 19776 19780 28
15825 19781 19782 28
15826 19781 19783 28
15827 19781 19784 28
15828 19781 19785 28
15829 19786 19787 28
15830 19786 19788 28
15831 19786 19789 28
15832 19786 19790 28
15833 19791 19792 28
15834 19791 19793 28
15835 19791 19794 28
15836 19791 19795 28
15837 19796 19797 28
15838 19796 19798 28
15839 19796 19799 28
15840 19796 19800 28
15841 19801 19802 28
15842 19801 19803 28
15843 19801 19804 28
15844 19801 19805 28
15845 19806 19807 28
15846 19806 19808 28
15847 19806 19809 28
15848 19806 19810 28
15849 19811 19812 28
15850 19811 19813 28
15851 19811 19814 28
15852 19811 19815 28
15853 19816 19817 28
15854 19816 19818 28
15855 19816 19819 28
15856 19816 19820 28
15857 19821 19822 28
15858 19821 19823 28
15859 19821 19824 28
15860 19821 19825 28
15861 19826 19827 28
15862 19826 19828 28
15863 19826 19829 28
15864 19826 19830 28
15865 19831 19832 28
15866 19831 19833 28
15867 19831 19834 28
15868 19831 19835 28
15869 19836 19837 28
15870 19836 19838 28
15871 19836 19839 28
15872 19836 19840 28
15873 19841 19842 28
15874 19841 19843 28
15875 19841 19844 28
15876 19841 19845 28
15877 19846 19847 28
15878 19846 19848 28
15879 19846 19849 28
15880 19846 19850 28
15881 19851 19852 28
15882 19851 19853 28
15883 19851 19854 28
15884 19851 19855 28
15885 19856 19857 28
15886 19856 19858 28
15887 19856 19859 28
15888 19856 19860 28
15889 19861 19862 28
15890 19861 19863 28
15891 19861 19864 28
15892 19861 19865 28
15893 19866 19867 28
15894 19866 19868 28
15895 19866 19869 28
15896 19866 19870 28
15897 19871 19872 28
15898 19871 19873 28
15899 19871 19874 28
15900 19871 19875 28
15901 19876 19877 28
15902 19876 19878 28
15903 19876 19879 28
15904 19876 19880 28
15905 19881 19882 28
15906 19881 19883 28
15907 19881 19884 28
15908 19881 19885 28
15909 19886 19887 28
15910 19886 19888 28
15911 19886 19889 28
15912 19886 19890 28
15913 19891 19892 28
15914 19891 19893 28
15915 19891 19894 28
15916 19891 19895 28
15917 19896 19897 28
15918 19896 19898 28
15919 19896 19899 28
15920 19896 19900 28
15921 19901 19902 28
15922 19901 19903 28
15923 19901 19904 28
15924 19901 19905 28
15925 19906 19907 28
15926 19906 19908 28
15927 19906 19909 28
15928 19906 19910 28
15929 19911 19912 28
15930 19911 19913 28
15931 19911 19914 28
15932 19911 19915 28
15933 19916 19917 28
15934 19916 19918 28
15935 19916 19919 28
15936 19916 19920 28
15937 19921 19922 28
15938 19921 19923 28
15939 19921 19924 28
15940 19921 19925 28
15941 19926 19927 28
15942 19926 19928 28
15943 19926 19929 28
15944 19926 19930 28
15945 19931 19932 28
15946 19931 19933 28
15947 19931 19934 28
15948 19931 19935 28
15949 19936 19937 28
15950 19936 19938 28
15951 19936 19939 28
15952 19936 19940 28
15953 19941 19942 28
15954 19941 19943 28
15955 19941 19944 28
15956 19941 19945 28
15957 19946 19947 28
15958 19946 19948 28
15959 19946 19949 28
15960 19946 19950 28
15961 19951 19952 28
15962 19951 19953 28
15963 19951 19954 28
15964 19951 19955 28
15965 19956 19957 28
15966 19956 19958 28
15967 19956 19959 28
15968 19956 19960 28
15969 19961 19962 28
15970 19961 19963 28
15971 19961 19964 28
15972 19961 19965 28
15973 19966 19967 28
15974 19966 19968 28
15975 19966 19969 28
15976 19966 19970 28
15977 19971 19972 28
15978 19971 19973 28
15979 19971 19974 28
15980 19971 19975 28
15981 19976 19977 28
15982 19976 19978 28
15983 19976 19979 28
15984 19976 19980 28
15985 19981 19982 28
15986 19981 19983 28
15987 19981 19984 28
15988 19981 19985 28
15989 19986 19987 28
15990 19986 19988 28
15991 19986 19989 28
15992 19986 19990 28
15993 19991 19992 28
15994 19991 19993 28
15995 19991 19994 28
15996 19991 19995 28
15997 19996 19997 28
15998 19996 19998 28
15999 19996 19999 28
16000 19996 20000 28
16001 20001 20002 28
16002 20001 20003 28
16003 20001 20004 28
16004 20001 20005 28
16005 20006 20007 28
16006 20006 20008 28
16007 20006 20009 28
16008 20006 20010 28
16009 20011 20012 28
16010 20011 20013 28
16011 20011 20014 28
16012 20011 20015 28
16013 20016 20017 28
16014 20016 20018 28
16015 20016 20019 28
16016 20016 20020 28
16017 20021 20022 28
16018 20021 20023 28
16019 20021 20024 28
16020 20021 20025 28
16021 20026 20027 28
16022 20026 20028 28
16023 20026 20029 28
16024 20026 20030 28
16025 20031 20032 28
16026 20031 20033 28
16027 20031 20034 28
16028 20031 20035 28
16029 20036 20037 28
16030 20036 20038 28
16031 20036 20039 28
16032 20036 20040 28
16033 20041 20042 28
16034 20041 20043 28
16035 20041 20044 28
16036 20041 20045 28
16037 20046 20047 28
16038 20046 20048 28
16039 20046 20049 28
16040 20046 20050 28
16041 20051 20052 28
16042 20051 20053 28
16043 20051 20054 28
16044 20051 20055 28
16045 20056 20057 28
16046 20056 20058 28
16047 20056 20059 28
16048 20056 20060 28
16049 20061 20062 28
16050 20061 20063 28
16051 20061 20064 28
16052 20061 20065 28
16053 20066 20067 28
16054 20066 20068 28
16055 20066 20069 28
16056 20066 20070 28
16057 20071 20072 28
16058 20071 20073 28
16059 20071 20074 28
16060 20071 20075 28
16061 20076 20077 28
16062 20076 20078 28
16063 20076 20079 28
16064 20076 20080 28
16065 20081 20082 28
16066 20081 20083 28
16067 20081 20084 28
16068 20081 20085 28
16069 20086 20087 28
16070 20086 20088 28
16071 20086 20089 28
16072 20086 20090 28
16073 20091 20092 28
16074 20091 20093 28
16075 20091 20094 28
16076 20091 20095 28
16077 20096 20097 28
16078 20096 20098 28
16079 20096 20099 28
16080 20096 20100 28
16081 20101 20102 28
16082 20101 20103 28
16083 20101 20104 28
16084 20101 20105 28
16085 20106 20107 28
16086 20106 20108 28
16087 20106 20109 28
16088 20106 20110 28
16089 20111 20112 28
16090 20111 20113 28
16091 20111 20114 28
16092 20111 20115 28
16093 20116 20117 28
16094 20116 20118 28
16095 20116 20119 28
16096 20116 20120 28
16097 20121 20122 28
16098 20121 20123 28
16099 20121 20124 28
16100 20121 20125 28
16101 20126 20127 28
16102 20126 20128 28
16103 20126 20129 28
16104 20126 20130 28
16105 20131 20132 28
16106 20131 20133 28
16107 20131 20134 28
16108 20131 20135 28
16109 20136 20137 28
16110 20136 20138 28
16111 20136 20139 28
16112 20136 20140 28
16113 20141 20142 28
16114 20141 20143 28
16115 20141 20144 28
16116 20141 20145 28
16117 20146 20147 28
16118 20146 20148 28
16119 20146 20149 28
16120 20146 20150 28
16121 20151 20152 28
16122 20151 20153 28
16123 20151 20154 28
16124 20151 20155 28
16125 20156 20157 28
16126 20156 20158 28
16127 20156 20159 28
16128 20156 20160 28
16129 20161 20162 28
16130 20161 20163 28
16131 20161 20164 28
16132 20161 20165 28
16133 20166 20167 28
16134 20166 20168 28
16135 20166 20169 28
16136 20166 20170 28
16137 20171 20172 28
16138 20171 20173 28
16139 20171 20174 28
16140 20171 20175 28
16141 20176 20177 28
16142 20176 20178 28
16143 20176 20179 28
16144 20176 20180 28
16145 20181 20182 28
16146 20181 20183 28
16147 20181 20184 28
16148 20181 20185 28
16149 20186 20187 28
16150 20186 20188 28
16151 20186 20189 28
16152 20186 20190 28
16153 20191 20192 28
16154 20191 20193 28
16155 20191 20194 28
16156 20191 20195 28
16157 20196 20197 28
16158 20196 20198 28
16159 20196 20199 28
16160 20196 20200 28
16161 20201 20202 28
16162 20201 20203 28
16163 20201 20204 28
16164 20201 20205 28
16165 20206 20207 28
16166 20206 20208 28
16167 20206 20209 28
16168 20206 20210 28
16169 20211 20212 28
16170 20211 20213 28
16171 20211 20214 28
16172 20211 20215 28
16173 20216 20217 28
16174 20216 20218 28
16175 20216 20219 28
16176 20216 20220 28
16177 20221 20222 28
16178 20221 20223 28
16179 20221 20224 28
16180 20221 20225 28
16181 20226 20227 28
16182 20226 20228 28
16183 20226 20229 28
16184 20226 20230 28
16185 20231 20232 28
16186 20231 20233 28
16187 20231 20234 28
16188 20231 20235 28
16189 20236 20237 28
16190 20236 20238 28
16191 20236 20239 28
16192 20236 20240 28
16193 20241 20242 28
16194 20241 20243 28
16195 20241 20244 28
16196 20241 20245 28
16197 20246 20247 28
16198 20246 20248 28
16199 20246 20249 28
16200 20246 20250 28
16201 20251 20252 28
16202 20251 20253 28
16203 20251 20254 28
16204 20251 20255 28
16205 20256 20257 28
16206 20256 20258 28
16207 20256 20259 28
16208 20256 20260 28
16209 20261 20262 28
16210 20261 20263 28
16211 20261 20264 28
16212 20261 20265 28
16213 20266 20267 28
16214 20266 20268 28
16215 20266 20269 28
16216 20266 20270 28
16217 20271 20272 28
16218 20271 20273 28
16219 20271 20274 28
16220 20271 20275 28
16221 20276 20277 28
16222 20276 20278 28
16223 20276 20279 28
16224 20276 20280 28
16225 20281 20282 28
16226 20281 20283 28
16227 20281 20284 28
16228 20281 20285 28
16229 20286 20287 28
16230 20286 20288 28
16231 20286 20289 28
16232 20286 20290 28
16233 20291 20292 28
16234 20291 20293 28
16235 20291 20294 28
16236 20291 20295 28
16237 20296 20297 28
16238 20296 20298 28
16239 20296 20299 28
16240 20296 20300 28
16241 20301 20302 28
16242 20301 20303 28
16243 20301 20304 28
16244 20301 20305 28
16245 20306 20307 28
16246 20306 20308 28
16247 20306 20309 28
16248 20306 20310 28
16249 20311 20312 28
16250 20311 20313 28
16251 20311 20314 28
16252 20311 20315 28
16253 20316 20317 28
16254 20316 20318 28
16255 20316 20319 28
16256 20316 20320 28
16257 20321 20322 28
16258 20321 20323 28
16259 20321 20324 28
16260 20321 20325 28
16261 20326 20327 28
16262 20326 20328 28
16263 20326 20329 28
16264 20326 20330 28
16265 20331 20332 28
16266 20331 20333 28
16267 20331 20334 28
16268 20331 20335 28
16269 20336 20337 28
16270 20336 20338 28
16271 20336 20339 28
16272 20336 20340 28
16273 20341 20342 28
16274 20341 20343 28
16275 20341 20344 28
16276 20341 20345 28
16277 20346 20347 28
16278 20346 20348 28
16279 20346 20349 28
16280 20346 20350 28
16281 20351 20352 28
16282 20351 20353 28
16283 20351 20354 28
16284 20351 20355 28
16285 20356 20357 28
16286 20356 20358 28
16287 20356 20359 28
16288 20356 20360 28
16289 20361 20362 28
16290 20361 20363 28
16291 20361 20364 28
16292 20361 20365 28
16293 20366 20367 28
16294 20366 20368 28
16295 20366 20369 28
16296 20366 20370 28
16297 20371 20372 28
16298 20371 20373 28
16299 20371 20374 28
16300 20371 20375 28
16301 20376 20377 28
16302 20376 20378 28
16303 20376 20379 28
16304 20376 20380 28
16305 20381 20382 28
16306 20381 20383 28
16307 20381 20384 28
16308 20381 20385 28
16309 20386 20387 28
16310 20386 20388 28
16311 20386 20389 28
16312 20386 20390 28
16313 20391 20392 28
16314 20391 20393 28
16315 20391 20394 28
16316 20391 20395 28
16317 20396 20397 28
16318 20396 20398 28
16319 20396 20399 28
16320 20396 20400 28
16321 20401 20402 28
16322 20401 20403 28
16323 20401 20404 28
16324 20401 20405 28
16325 20406 20407 28
16326 20406 20408 28
16327 20406 20409 28
16328 20406 20410 28
16329 20411 20412 28
16330 20411 20413 28
16331 20411 20414 28
16332 20411 20415 28
16333 20416 20417 28
16334 20416 20418 28
16335 20416 20419 28
16336 20416 20420 28
16337 20421 20422 28
16338 20421 20423 28
16339 20421 20424 28
16340 20421 20425 28
16341 20426 20427 28
16342 20426 20428 28
16343 20426 20429 28
16344 20426 20430 28
16345 20431 20432 28
16346 20431 20433 28
16347 20431 20434 28
16348 20431 20435 28
16349 20436 20437 28
16350 20436 20438 28
16351 20436 20439 28
16352 20436 20440 28
16353 20441 20442 28
16354 20441 20443 28
16355 20441 20444 28
16356 20441 20445 28
16357 20446 20447 28
16358 20446 20448 28
16359 20446 20449 28
16360 20446 20450 28
16361 20451 20452 28
16362 20451 20453 28
16363 20451 20454 28
16364 20451 20455 28
16365 20456 20457 28
16366 20456 20458 28
16367 20456 20459 28
16368 20456 20460 28
16369 20461 20462 28
16370 20461 20463 28
16371 20461 20464 28
16372 20461 20465 28
16373 20466 20467 28
16374 20466 20468 28
16375 20466 20469 28
16376 20466 20470 28
16377 20471 20472 28
16378 20471 20473 28
16379 20471 20474 28
16380 20471 20475 28
16381 20476 20477 28
16382 20476 20478 28
16383 20476 20479 28
16384 20476 20480 28
16385 20481 20482 28
16386 20481 20483 28
16387 20481 20484 28
16388 20481 20485 28
16389 20486 20487 28
16390 20486 20488 28
16391 20486 20489 28
16392 20486 20490 28
16393 20491 20492 28
16394 20491 20493 28
16395 20491 20494 28
16396 20491 20495 28
16397 20496 20497 28
16398 20496 20498 28
16399 20496 20499 28
16400 20496 20500 28
16401 20501 20502 28
16402 20501 20503 28
16403 20501 20504 28
16404 20501 20505 28
16405 20506 20507 28
16406 20506 20508 28
16407 20506 20509 28
16408 20506 20510 28
16409 20511 20512 28
16410 20511 20513 28
16411 20511 20514 28
16412 20511 20515 28
16413 20516 20517 28
16414 20516 20518 28
16415 20516 20519 28
16416 20516 20520 28
16417 20521 20522 28
16418 20521 20523 28
16419 20521 20524 28
16420 20521 20525 28
16421 20526 20527 28
16422 20526 20528 28
16423 20526 20529 28
16424 20526 20530 28
16425 20531 20532 28
16426 20531 20533 28
16427 20531 20534 28
16428 20531 20535 28
16429 20536 20537 28
16430 20536 20538 28
16431 20536 20539 28
16432 20536 20540 28
16433 20541 20542 28
16434 20541 20543 28
16435 20541 20544 28
16436 20541 20545 28
16437 20546 20547 28
16438 20546 20548 28
16439 20546 20549 28
16440 20546 20550 28
16441 20551 20552 28
16442 20551 20553 28
16443 20551 20554 28
16444 20551 20555 28
16445 20556 20557 28
16446 20556 20558 28
16447 20556 20559 28
16448 20556 20560 28
16449 20561 20562 28
16450 20561 20563 28
16451 20561 20564 28
16452 20561 20565 28
16453 20566 20567 28
16454 20566 20568 28
16455 20566 20569 28
16456 20566 20570 28
16457 20571 20572 28
16458 20571 20573 28
16459 20571 20574 28
16460 20571 20575 28
16461 20576 20577 28
16462 20576 20578 28
16463 20576 20579 28
16464 20576 20580 28
16465 20581 20582 28
16466 20581 20583 28
16467 20581 20584 28
16468 20581 20585 28
16469 20586 20587 28
16470 20586 20588 28
16471 20586 20589 28
16472 20586 20590 28
16473 20591 20592 28
16474 20591 20593 28
16475 20591 20594 28
16476 20591 20595 28
16477 20596 20597 28
16478 20596 20598 28
16479 20596 20599 28
16480 20596 20600 28
16481 20601 20602 28
16482 20601 20603 28
16483 20601 20604 28
16484 20601 20605 28
16485 20606 20607 28
16486 20606 20608 28
16487 20606 20609 28
16488 20606 20610 28
16489 20611 20612 28
16490 20611 20613 28
16491 20611 20614 28
16492 20611 20615 28
16493 20616 20617 28
16494 20616 20618 28
16495 20616 20619 28
16496 20616 20620 28
16497 20621 20622 28
16498 20621 20623 28
16499 20621 20624 28
16500 20621 20625 28
16501 20626 20627 28
16502 20626 20628 28
16503 20626 20629 28
16504 20626 20630 28
16505 20631 20632 28
16506 20631 20633 28
16507 20631 20634 28
16508 20631 20635 28
16509 20636 20637 28
16510 20636 20638 28
16511 20636 20639 28
16512 20636 20640 28
16513 20641 20642 28
16514 20641 20643 28
16515 20641 20644 28
16516 20641 20645 28
16517 20646 20647 28
16518 20646 20648 28
16519 20646 20649 28
16520 20646 20650 28
16521 20651 20652 28
16522 20651 20653 28
16523 20651 20654 28
16524 20651 20655 28
16525 20656 20657 28
16526 20656 20658 28
16527 20656 20659 28
16528 20656 20660 28
16529 20661 20662 28
16530 20661 20663 28
16531 20661 20664 28
16532 20661 20665 28
16533 20666 20667 28
16534 20666 20668 28
16535 20666 20669 28
16536 20666 20670 28
16537 20671 20672 28
16538 20671 20673 28
16539 20671 20674 28
16540 20671 20675 28
16541 20676 20677 28
16542 20676 20678 28
16543 20676 20679 28
16544 20676 20680 28
16545 20681 20682 28
16546 20681 20683 28
16547 20681 20684 28
16548 20681 20685 28
16549 20686 20687 28
16550 20686 20688 28
16551 20686 20689 28
16552 20686 20690 28
16553 20691 20692 28
16554 20691 20693 28
16555 20691 20694 28
16556 20691 20695 28
16557 20696 20697 28
16558 20696 20698 28
16559 20696 20699 28
16560 20696 20700 28
16561 20701 20702 28
16562 20701 20703 28
16563 20701 20704 28
16564 20701 20705 28
16565 20706 20707 28
16566 20706 20708 28
16567 20706 20709 28
16568 20706 20710 28
16569 20711 20712 28
16570 20711 20713 28
16571 20711 20714 28
16572 20711 20715 28
16573 20716 20717 28
16574 20716 20718 28
16575 20716 20719 28
16576 20716 20720 28
16577 20721 20722 28
16578 20721 20723 28
16579 20721 20724 28
16580 20721 20725 28
16581 20726 20727 28
16582 20726 20728 28
16583 20726 20729 28
16584 20726 20730 28
16585 20731 20732 28
16586 20731 20733 28
16587 20731 20734 28
16588 20731 20735 28
16589 20736 20737 28
16590 20736 20738 28
16591 20736 20739 28
16592 20736 20740 28
16593 20741 20742 28
16594 20741 20743 28
16595 20741 20744 28
16596 20741 20745 28
16597 20746 20747 28
16598 20746 20748 28
16599 20746 20749 28
16600 20746 20750 28
16601 20751 20752 28
16602 20751 20753 28
16603 20751 20754 28
16604 20751 20755 28
16605 20756 20757 28
16606 20756 20758 28
16607 20756 20759 28
16608 20756 20760 28
16609 20761 20762 28
16610 20761 20763 28
16611 20761 20764 28
16612 20761 20765 28
16613 20766 20767 28
16614 20766 20768 28
16615 20766 20769 28
16616 20766 20770 28
16617 20771 20772 28
16618 20771 20773 28
16619 20771 20774 28
16620 20771 20775 28
16621 20776 20777 28
16622 20776 20778 28
16623 20776 20779 28
16624 20776 20780 28
16625 20781 20782 28
16626 20781 20783 28
16627 20781 20784 28
16628 20781 20785 28
16629 20786 20787 28
16630 20786 20788 28
16631 20786 20789 28
16632 20786 20790 28
16633 20791 20792 28
16634 20791 20793 28
16635 20791 20794 28
16636 20791 20795 28
16637 20796 20797 28
16638 20796 20798 28
16639 20796 20799 28
16640 20796 20800 28
16641 20801 20802 28
16642 20801 20803 28
16643 20801 20804 28
16644 20801 20805 28
16645 20806 20807 28
16646 20806 20808 28
16647 20806 20809 28
16648 20806 20810 28
16649 20811 20812 28
16650 20811 20813 28
16651 20811 20814 28
16652 20811 20815 28
16653 20816 20817 28
16654 20816 20818 28
16655 20816 20819 28
16656 20816 20820 28
16657 20821 20822 28
16658 20821 20823 28
16659 20821 20824 28
16660 20821 20825 28
16661 20826 20827 28
16662 20826 20828 28
16663 20826 20829 28
16664 20826 20830 28
16665 20831 20832 28
16666 20831 20833 28
16667 20831 20834 28
16668 20831 20835 28
16669 20836 20837 28
16670 20836 20838 28
16671 20836 20839 28
16672 20836 20840 28
16673 20841 20842 28
16674 20841 20843 28
16675 20841 20844 28
16676 20841 20845 28
16677 20846 20847 28
16678 20846 20848 28
16679 20846 20849 28
16680 20846 20850 28
16681 20851 20852 28
16682 20851 20853 28
16683 20851 20854 28
16684 20851 20855 28
16685 20856 20857 28
16686 20856 20858 28
16687 20856 20859 28
16688 20856 20860 28
16689 20861 20862 28
16690 20861 20863 28
16691 20861 20864 28
16692 20861 20865 28
16693 20866 20867 28
16694 20866 20868 28
16695 20866 20869 28
16696 20866 20870 28
16697 20871 20872 28
16698 20871 20873 28
16699 20871 20874 28
16700 20871 20875 28
16701 20876 20877 28
16702 20876 20878 28
16703 20876 20879 28
16704 20876 20880 28
16705 20881 20882 28
16706 20881 20883 28
16707 20881 20884 28
16708 20881 20885 28
16709 20886 20887 28
16710 20886 20888 28
16711 20886 20889 28
16712 20886 20890 28
16713 20891 20892 28
16714 20891 20893 28
16715 20891 20894 28
16716 20891 20895 28
16717 20896 20897 28
16718 20896 20898 28
16719 20896 20899 28
16720 20896 20900 28
16721 20901 20902 28
16722 20901 20903 28
16723 20901 20904 28
16724 20901 20905 28
16725 20906 20907 28
16726 20906 20908 28
16727 20906 20909 28
16728 20906 20910 28
16729 20911 20912 28
16730 20911 20913 28
16731 20911 20914 28
16732 20911 20915 28
16733 20916 20917 28
16734 20916 20918 28
16735 20916 20919 28
16736 20916 20920 28
16737 20921 20922 28
16738 20921 20923 28
16739 20921 20924 28
16740 20921 20925 28
16741 20926 20927 28
16742 20926 20928 28
16743 20926 20929 28
16744 20926 20930 28
16745 20931 20932 28
16746 20931 20933 28
16747 20931 20934 28
16748 20931 20935 28
16749 20936 20937 28
16750 20936 20938 28
16751 20936 20939 28
16752 20936 20940 28
16753 20941 20942 28
16754 20941 20943 28
16755 20941 20944 28
16756 20941 20945 28
16757 20946 20947 28
16758 20946 20948 28
16759 20946 20949 28
16760 20946 20950 28
16761 20951 20952 28
16762 20951 20953 28
16763 20951 20954 28
16764 20951 20955 28
16765 20956 20957 28
16766 20956 20958 28
16767 20956 20959 28
16768 20956 20960 28
16769 20961 20962 28
16770 20961 20963 28
16771 20961 20964 28
16772 20961 20965 28
16773 20966 20967 28
16774 20966 20968 28
16775 20966 20969 28
16776 20966 20970 28
16777 20971 20972 28
16778 20971 20973 28
16779 20971 20974 28
16780 20971 20975 28
16781 20976 20977 28
16782 20976 20978 28
16783 20976 20979 28
16784 20976 20980 28
16785 20981 20982 28
16786 20981 20983 28
16787 20981 20984 28
16788 20981 20985 28
16789 20986 20987 28
16790 20986 20988 28
16791 20986 20989 28
16792 20986 20990 28
16793 20991 20992 28
16794 20991 20993 28
16795 20991 20994 28
16796 20991 20995 28
16797 20996 20997 28
16798 20996 20998 28
16799 20996 20999 28
16800 20996 21000 28
16801 21001 21002 28
16802 21001 21003 28
16803 21001 21004 28
16804 21001 21005 28
16805 21006 21007 28
16806 21006 21008 28
16807 21006 21009 28
16808 21006 21010 28
16809 21011 21012 28
16810 21011 21013 28
16811 21011 21014 28
16812 21011 21015 28
16813 21016 21017 28
16814 21016 21018 28
16815 21016 21019 28
16816 21016 21020 28
16817 21021 21022 28
16818 21021 21023 28
16819 21021 21024 28
16820 21021 21025 28
16821 21026 21027 28
16822 21026 21028 28
16823 21026 21029 28
16824 21026 21030 28
16825 21031 21032 28
16826 21031 21033 28
16827 21031 21034 28
16828 21031 21035 28
16829 21036 21037 28
16830 21036 21038 28
16831 21036 21039 28
16832 21036 21040 28
16833 21041 21042 28
16834 21041 21043 28
16835 21041 21044 28
16836 21041 21045 28
16837 21046 21047 28
16838 21046 21048 28
16839 21046 21049 28
16840 21046 21050 28
16841 21051 21052 28
16842 21051 21053 28
16843 21051 21054 28
16844 21051 21055 28
16845 21056 21057 28
16846 21056 21058 28
16847 21056 21059 28
16848 21056 21060 28
16849 21061 21062 28
16850 21061 21063 28
16851 21061 21064 28
16852 21061 21065 28
16853 21066 21067 28
16854 21066 21068 28
16855 21066 21069 28
16856 21066 21070 28
16857 21071 21072 28
16858 21071 21073 28
16859 21071 21074 28
16860 21071 21075 28
16861 21076 21077 28
16862 21076 21078 28
16863 21076 21079 28
16864 21076 21080 28
16865 21081 21082 28
16866 21081 21083 28
16867 21081 21084 28
16868 21081 21085 28
16869 21086 21087 28
16870 21086 21088 28
16871 21086 21089 28
16872 21086 21090 28
16873 21091 21092 28
16874 21091 21093 28
16875 21091 21094 28
16876 21091 21095 28
16877 21096 21097 28
16878 21096 21098 28
16879 21096 21099 28
16880 21096 21100 28
16881 21101 21102 28
16882 21101 21103 28
16883 21101 21104 28
16884 21101 21105 28
16885 21106 21107 28
16886 21106 21108 28
16887 21106 21109 28
16888 21106 21110 28
16889 21111 21112 28
16890 21111 21113 28
16891 21111 21114 28
16892 21111 21115 28
16893 21116 21117 28
16894 21116 21118 28
16895 21116 21119 28
16896 21116 21120 28
16897 21121 21122 28
16898 21121 21123 28
16899 21121 21124 28
16900 21121 21125 28
16901 21126 21127 28
16902 21126 21128 28
16903 21126 21129 28
16904 21126 21130 28
16905 21131 21132 28
16906 21131 21133 28
16907 21131 21134 28
16908 21131 21135 28
16909 21136 21137 28
16910 21136 21138 28
16911 21136 21139 28
16912 21136 21140 28
16913 21141 21142 28
16914 21141 21143 28
16915 21141 21144 28
16916 21141 21145 28
16917 21146 21147 28
16918 21146 21148 28
16919 21146 21149 28
16920 21146 21150 28
16921 21151 21152 28
16922 21151 21153 28
16923 21151 21154 28
16924 21151 21155 28
16925 21156 21157 28
16926 21156 21158 28
16927 21156 21159 28
16928 21156 21160 28
16929 21161 21162 28
16930 21161 21163 28
16931 21161 21164 28
16932 21161 21165 28
16933 21166 21167 28
16934 21166 21168 28
16935 21166 21169 28
16936 21166 21170 28
16937 21171 21172 28
16938 21171 21173 28
16939 21171 21174 28
16940 21171 21175 28
16941 21176 21177 28
16942 21176 21178 28
16943 21176 21179 28
16944 21176 21180 28
16945 21181 21182 28
16946 21181 21183 28
16947 21181 21184 28
16948 21181 21185 28
16949 21186 21187 28
16950 21186 21188 28
16951 21186 21189 28
16952 21186 21190 28
16953 21191 21192 28
16954 21191 21193 28
16955 21191 21194 28
16956 21191 21195 28
16957 21196 21197 28
16958 21196 21198 28
16959 21196 21199 28
16960 21196 21200 28
16961 21201 21202 28
16962 21201 21203 28
16963 21201 21204 28
16964 21201 21205 28
16965 21206 21207 28
16966 21206 21208 28
16967 21206 21209 28
16968 21206 21210 28
16969 21211 21212 28
16970 21211 21213 28
16971 21211 21214 28
16972 21211 21215 28
16973 21216 21217 28
16974 21216 21218 28
16975 21216 21219 28
16976 21216 21220 28
16977 21221 21222 28
16978 21221 21223 28
16979 21221 21224 28
16980 21221 21225 28
16981 21226 21227 28
16982 21226 21228 28
16983 21226 21229 28
16984 21226 21230 28
16985 21231 21232 28
16986 21231 21233 28
16987 21231 21234 28
16988 21231 21235 28
16989 21236 21237 28
16990 21236 21238 28
16991 21236 21239 28
16992 21236 21240 28
16993 21241 21242 28
16994 21241 21243 28
16995 21241 21244 28
16996 21241 21245 28
16997 21246 21247 28
16998 21246 21248 28
16999 21246 21249 28
17000 21246 21250 28
17001 21251 21252 28
17002 21251 21253 28
17003 21251 21254 28
17004 21251 21255 28
17005 21256 21257 28
17006 21256 21258 28
17007 21256 21259 28
17008 21256 21260 28
17009 21261 21262 28
17010 21261 21263 28
17011 21261 21264 28
17012 21261 21265 28
17013 21266 21267 28
17014 21266 21268 28
17015 21266 21269 28
17016 21266 21270 28
17017 21271 21272 28
17018 21271 21273 28
17019 21271 21274 28
17020 21271 21275 28
17021 21276 21277 28
17022 21276 21278 28
17023 21276 21279 28
17024 21276 21280 28
17025 21281 21282 28
17026 21281 21283 28
17027 21281 21284 28
17028 21281 21285 28
17029 21286 21287 28
17030 21286 21288 28
17031 21286 21289 28
17032 21286 21290 28
17033 21291 21292 28
17034 21291 21293 28
17035 21291 21294 28
17036 21291 21295 28
17037 21296 21297 28
17038 21296 21298 28
17039 21296 21299 28
17040 21296 21300 28
17041 21301 21302 28
17042 21301 21303 28
17043 21301 21304 28
17044 21301 21305 28
17045 21306 21307 28
17046 21306 21308 28
17047 21306 21309 28
17048 21306 21310 28
17049 21311 21312 28
17050 21311 21313 28
17051 21311 21314 28
17052 21311 21315 28
17053 21316 21317 28
17054 21316 21318 28
17055 21316 21319 28
17056 21316 21320 28
17057 21321 21322 28
17058 21321 21323 28
17059 21321 21324 28
17060 21321 21325 28
17061 21326 21327 28
17062 21326 21328 28
17063 21326 21329 28
17064 21326 21330 28
17065 21331 21332 28
17066 21331 21333 28
17067 21331 21334 28
17068 21331 21335 28
17069 21336 21337 28
17070 21336 21338 28
17071 21336 21339 28
17072 21336 21340 28
17073 21341 21342 28
17074 21341 21343 28
17075 21341 21344 28
17076 21341 21345 28
17077 21346 21347 28
17078 21346 21348 28
17079 21346 21349 28
17080 21346 21350 28
17081 21351 21352 28
17082 21351 21353 28
17083 21351 21354 28
17084 21351 21355 28
17085 21356 21357 28
17086 21356 21358 28
17087 21356 21359 28
17088 21356 21360 28
17089 21361 21362 28
17090 21361 21363 28
17091 21361 21364 28
17092 21361 21365 28
17093 21366 21367 28
17094 21366 21368 28
17095 21366 21369 28
17096 21366 21370 28
17097 21371 21372 28
17098 21371 21373 28
17099 21371 21374 28
17100 21371 21375 28
17101 21376 21377 28
17102 21376 21378 28
17103 21376 21379 28
17104 21376 21380 28
17105 21381 21382 28
17106 21381 21383 28
17107 21381 21384 28
17108 21381 21385 28
17109 21386 21387 28
17110 21386 21388 28
17111 21386 21389 28
17112 21386 21390 28
17113 21391 21392 28
17114 21391 21393 28
17115 21391 21394 28
17116 21391 21395 28
17117 21396 21397 28
17118 21396 21398 28
17119 21396 21399 28
17120 21396 21400 28
17121 21401 21402 28
17122 21401 21403 28
17123 21401 21404 28
17124 21401 21405 28
17125 21406 21407 28
17126 21406 21408 28
17127 21406 21409 28
17128 21406 21410 28
17129 21411 21412 28
17130 21411 21413 28
17131 21411 21414 28
17132 21411 21415 28
17133 21416 21417 28
17134 21416 21418 28
17135 21416 21419 28
17136 21416 21420 28
17137 21421 21422 28
17138 21421 21423 28
17139 21421 21424 28
17140 21421 21425 28
17141 21426 21427 28
17142 21426 21428 28
17143 21426 21429 28
17144 21426 21430 28
17145 21431 21432 28
17146 21431 21433 28
17147 21431 21434 28
17148 21431 21435 28
17149 21436 21437 28
17150 21436 21438 28
17151 21436 21439 28
17152 21436 21440 28
17153 21441 21442 28
17154 21441 21443 28
17155 21441 21444 28
17156 21441 21445 28
17157 21446 21447 28
17158 21446 21448 28
17159 21446 21449 28
17160 21446 21450 28
17161 21451 21452 28
17162 21451 21453 28
17163 21451 21454 28
17164 21451 21455 28
17165 21456 21457 28
17166 21456 21458 28
17167 21456 21459 28
17168 21456 21460 28
17169 21461 21462 28
17170 21461 21463 28
17171 21461 21464 28
17172 21461 21465 28
17173 21466 21467 28
17174 21466 21468 28
17175 21466 21469 28
17176 21466 21470 28
17177 21471 21472 28
17178 21471 21473 28
17179 21471 21474 28
17180 21471 21475 28
17181 21476 21477 28
17182 21476 21478 28
17183 21476 21479 28
17184 21476 21480 28
17185 21481 21482 28
17186 21481 21483 28
17187 21481 21484 28
17188 21481 21485 28
17189 21486 21487 28
17190 21486 21488 28
17191 21486 21489 28
17192 21486 21490 28
17193 21491 21492 28
17194 21491 21493 28
17195 21491 21494 28
17196 21491 21495 28
17197 21496 21497 28
17198 21496 21498 28
17199 21496 21499 28
17200 21496 21500 28
17201 21501 21502 28
17202 21501 21503 28
17203 21501 21504 28
17204 21501 21505 28
17205 21506 21507 28
17206 21506 21508 28
17207 21506 21509 28
17208 21506 21510 28
17209 21511 21512 28
17210 21511 21513 28
17211 21511 21514 28
17212 21511 21515 28
17213 21516 21517 28
17214 21516 21518 28
17215 21516 21519 28
17216 21516 21520 28
17217 21521 21522 28
17218 21521 21523 28
17219 21521 21524 28
17220 21521 21525 28
17221 21526 21527 28
17222 21526 21528 28
17223 21526 21529 28
17224 21526 21530 28
17225 21531 21532 28
17226 21531 21533 28
17227 21531 21534 28
17228 21531 21535 28
17229 21536 21537 28
17230 21536 21538 28
17231 21536 21539 28
17232 21536 21540 28
17233 21541 21542 28
17234 21541 21543 28
17235 21541 21544 28
17236 21541 21545 28
17237 21546 21547 28
17238 21546 21548 28
17239 21546 21549 28
17240 21546 21550 28
17241 21551 21552 28
17242 21551 21553 28
17243 21551 21554 28
17244 21551 21555 28
17245 21556 21557 28
17246 21556 21558 28
17247 21556 21559 28
17248 21556 21560 28
17249 21561 21562 28
17250 21561 21563 28
17251 21561 21564 28
17252 21561 21565 28
17253 21566 21567 28
17254 21566 21568 28
17255 21566 21569 28
17256 21566 21570 28
17257 21571 21572 28
17258 21571 21573 28
17259 21571 21574 28
17260 21571 21575 28
17261 21576 21577 28
17262 21576 21578 28
17263 21576 21579 28
17264 21576 21580 28
17265 21581 21582 28
17266 21581 21583 28
17267 21581 21584 28
17268 21581 21585 28
17269 21586 21587 28
17270 21586 21588 28
17271 21586 21589 28
17272 21586 21590 28
17273 21591 21592 28
17274 21591 21593 28
17275 21591 21594 28
17276 21591 21595 28
17277 21596 21597 28
17278 21596 21598 28
17279 21596 21599 28
17280 21596 21600 28
17281 21601 21602 28
17282 21601 21603 28
17283 21601 21604 28
17284 21601 21605 28
17285 21606 21607 28
17286 21606 21608 28
17287 21606 21609 28
17288 21606 21610 28
17289 21611 21612 28
17290 21611 21613 28
17291 21611 21614 28
17292 21611 21615 28
17293 21616 21617 28
17294 21616 21618 28
17295 21616 21619 28
17296 21616 21620 28
17297 21621 21622 28
17298 21621 21623 28
17299 21621 21624 28
17300 21621 21625 28
17301 21626 21627 28
17302 21626 21628 28
17303 21626 21629 28
17304 21626 21630 28
17305 21631 21632 28
17306 21631 21633 28
17307 21631 21634 28
17308 21631 21635 28
17309 21636 21637 28
17310 21636 21638 28
17311 21636 21639 28
17312 21636 21640 28
17313 21641 21642 28
17314 21641 21643 28
17315 21641 21644 28
17316 21641 21645 28
17317 21646 21647 28
17318 21646 21648 28
17319 21646 21649 28
17320 21646 21650 28
17321 21651 21652 28
17322 21651 21653 28
17323 21651 21654 28
17324 21651 21655 28
17325 21656 21657 28
17326 21656 21658 28
17327 21656 21659 28
17328 21656 21660 28
17329 21661 21662 28
17330 21661 21663 28
17331 21661 21664 28
17332 21661 21665 28
17333 21666 21667 28
17334 21666 21668 28
17335 21666 21669 28
17336 21666 21670 28
17337 21671 21672 28
17338 21671 21673 28
17339 21671 21674 28
17340 21671 21675 28
17341 21676 21677 28
17342 21676 21678 28
17343 21676 21679 28
17344 21676 21680 28
17345 21681 21682 28
17346 21681 21683 28
17347 21681 21684 28
17348 21681 21685 28
17349 21686 21687 28
17350 21686 21688 28
17351 21686 21689 28
17352 21686 21690 28
17353 21691 21692 28
17354 21691 21693 28
17355 21691 21694 28
17356 21691 21695 28
17357 21696 21697 28
17358 21696 21698 28
17359 21696 21699 28
17360 21696 21700 28
17361 21701 21702 28
17362 21701 21703 28
17363 21701 21704 28
17364 21701 21705 28
17365 21706 21707 28
17366 21706 21708 28
17367 21706 21709 28
17368 21706 21710 28
17369 21711 21712 28
17370 21711 21713 28
17371 21711 21714 28
17372 21711 21715 28
17373 21716 21717 28
17374 21716 21718 28
17375 21716 21719 28
17376 21716 21720 28
17377 21721 21722 28
17378 21721 21723 28
17379 21721 21724 28
17380 21721 21725 28
17381 21726 21727 28
17382 21726 21728 28
17383 21726 21729 28
17384 21726 21730 28
17385 21731 21732 28
17386 21731 21733 28
17387 21731 21734 28
17388 21731 21735 28
17389 21736 21737 28
17390 21736 21738 28
17391 21736 21739 28
17392 21736 21740 28
17393 21741 21742 28
17394 21741 21743 28
17395 21741 21744 28
17396 21741 21745 28
17397 21746 21747 28
17398 21746 21748 28
17399 21746 21749 28
17400 21746 21750 28
17401 21751 21752 28
17402 21751 21753 28
17403 21751 21754 28
17404 21751 21755 28
17405 21756 21757 28
17406 21756 21758 28
17407 21756 21759 28
17408 21756 21760 28
17409 21761 21762 28
17410 21761 21763 28
17411 21761 21764 28
17412 21761 21765 28
17413 21766 21767 28
17414 21766 21768 28
17415 21766 21769 28
17416 21766 21770 28
17417 21771 21772 28
17418 21771 21773 28
17419 21771 21774 28
17420 21771 21775 28
17421 21776 21777 28
17422 21776 21778 28
17423 21776 21779 28
17424 21776 21780 28
17425 21781 21782 28
17426 21781 21783 28
17427 21781 21784 28
17428 21781 21785 28
17429 21786 21787 28
17430 21786 21788 28
17431 21786 21789 28
17432 21786 21790 28
17433 21791 21792 28
17434 21791 21793 28
17435 21791 21794 28
17436 21791 21795 28
17437 21796 21797 28
17438 21796 21798 28
17439 21796 21799 28
17440 21796 21800 28
17441 21801 21802 28
17442 21801 21803 28
17443 21801 21804 28
17444 21801 21805 28
17445 21806 21807 28
17446 21806 21808 28
17447 21806 21809 28
17448 21806 21810 28
17449 21811 21812 28
17450 21811 21813 28
17451 21811 21814 28
17452 21811 21815 28
17453 21816 21817 28
17454 21816 21818 28
17455 21816 21819 28
17456 21816 21820 28
17457 21821 21822 28
17458 21821 21823 28
17459 21821 21824 28
17460 21821 21825 28
17461 21826 21827 28
17462 21826 21828 28
17463 21826 21829 28
17464 21826 21830 28
17465 21831 21832 28
17466 21831 21833 28
17467 21831 21834 28
17468 21831 21835 28
17469 21836 21837 28
17470 21836 21838 28
17471 21836 21839 28
17472 21836 21840 28
17473 21841 21842 28
17474 21841 21843 28
17475 21841 21844 28
17476 21841 21845 28
17477 21846 21847 28
17478 21846 21848 28
17479 21846 21849 28
17480 21846 21850 28
17481 21851 21852 28
17482 21851 21853 28
17483 21851 21854 28
17484 21851 21855 28
17485 21856 21857 28
17486 21856 21858 28
17487 21856 21859 28
17488 21856 21860 28
17489 21861 21862 28
17490 21861 21863 28
17491 21861 21864 28
17492 21861 21865 28
17493 21866 21867 28
17494 21866 21868 28
17495 21866 21869 28
17496 21866 21870 28
17497 21871 21872 28
17498 21871 21873 28
17499 21871 21874 28
17500 21871 21875 28
17501 21876 21877 28
17502 21876 21878 28
17503 21876 21879 28
17504 21876 21880 28
17505 21881 21882 28
17506 21881 21883 28
17507 21881 21884 28
17508 21881 21885 28
17509 21886 21887 28
17510 21886 21888 28
17511 21886 21889 28
17512 21886 21890 28
17513 21891 21892 28
17514 21891 21893 28
17515 21891 21894 28
17516 21891 21895 28
17517 21896 21897 28
17518 21896 21898 28
17519 21896 21899 28
17520 21896 21900 28
17521 21901 21902 28
17522 21901 21903 28
17523 21901 21904 28
17524 21901 21905 28
17525 21906 21907 28
17526 21906 21908 28
17527 21906 21909 28
17528 21906 21910 28
17529 21911 21912 28
17530 21911 21913 28
17531 21911 21914 28
17532 21911 21915 28
17533 21916 21917 28
17534 21916 21918 28
17535 21916 21919 28
17536 21916 21920 28
17537 21921 21922 28
17538 21921 21923 28
17539 21921 21924 28
17540 21921 21925 28
17541 21926 21927 28
17542 21926 21928 28
17543 21926 21929 28
17544 21926 21930 28
17545 21931 21932 28
17546 21931 21933 28
17547 21931 21934 28
17548 21931 21935 28
17549 21936 21937 28
17550 21936 21938 28
17551 21936 21939 28
17552 21936 21940 28
17553 21941 21942 28
17554 21941 21943 28
17555 21941 21944 28
17556 21941 21945 28
17557 21946 21947 28
17558 21946 21948 28
17559 21946 21949 28
17560 21946 21950 28
17561 21951 21952 28
17562 21951 21953 28
17563 21951 21954 28
17564 21951 21955 28
17565 21956 21957 28
17566 21956 21958 28
17567 21956 21959 28
17568 21956 21960 28
17569 21961 21962 28
17570 21961 21963 28
17571 21961 21964 28
17572 21961 21965 28
17573 21966 21967 28
17574 21966 21968 28
17575 21966 21969 28
17576 21966 21970 28
17577 21971 21972 28
17578 21971 21973 28
17579 21971 21974 28
17580 21971 21975 28
17581 21976 21977 28
17582 21976 21978 28
17583 21976 21979 28
17584 21976 21980 28
17585 21981 21982 28
17586 21981 21983 28
17587 21981 21984 28
17588 21981 21985 28
17589 21986 21987 28
17590 21986 21988 28
17591 21986 21989 28
17592 21986 21990 28
17593 21991 21992 28
17594 21991 21993 28
17595 21991 21994 28
17596 21991 21995 28
17597 21996 21997 28
17598 21996 21998 28
17599 21996 21999 28
17600 21996 22000 28
17601 22001 22002 28
17602 22001 22003 28
17603 22001 22004 28
17604 22001 22005 28
17605 22006 22007 28
17606 22006 22008 28
17607 22006 22009 28
17608 22006 22010 28
17609 22011 22012 28
17610 22011 22013 28
17611 22011 22014 28
17612 22011 22015 28
17613 22016 22017 28
17614 22016 22018 28
17615 22016 22019 28
17616 22016 22020 28
17617 22021 22022 28
17618 22021 22023 28
17619 22021 22024 28
17620 22021 22025 28
17621 22026 22027 28
17622 22026 22028 28
17623 22026 22029 28
17624 22026 22030 28
17625 22031 22032 28
17626 22031 22033 28
17627 22031 22034 28
17628 22031 22035 28
17629 22036 22037 28
17630 22036 22038 28
17631 22036 22039 28
17632 22036 22040 28
17633 22041 22042 28
17634 22041 22043 28
17635 22041 22044 28
17636 22041 22045 28
17637 22046 22047 28
17638 22046 22048 28
17639 22046 22049 28
17640 22046 22050 28
17641 22051 22052 28
17642 22051 22053 28
17643 22051 22054 28
17644 22051 22055 28
17645 22056 22057 28
17646 22056 22058 28
17647 22056 22059 28
17648 22056 22060 28
17649 22061 22062 28
17650 22061 22063 28
17651 22061 22064 28
17652 22061 22065 28
17653 22066 22067 28
17654 22066 22068 28
17655 22066 22069 28
17656 22066 22070 28
17657 22071 22072 28
17658 22071 22073 28
17659 22071 22074 28
17660 22071 22075 28
17661 22076 22077 28
17662 22076 22078 28
17663 22076 22079 28
17664 22076 22080 28
17665 22081 22082 28
17666 22081 22083 28
17667 22081 22084 28
17668 22081 22085 28
17669 22086 22087 28
17670 22086 22088 28
17671 22086 22089 28
17672 22086 22090 28
17673 22091 22092 28
17674 22091 22093 28
17675 22091 22094 28
17676 22091 22095 28
17677 22096 22097 28
17678 22096 22098 28
17679 22096 22099 28
17680 22096 22100 28
17681 22101 22102 28
17682 22101 22103 28
17683 22101 22104 28
17684 22101 22105 28
17685 22106 22107 28
17686 22106 22108 28
17687 22106 22109 28
17688 22106 22110 28
17689 22111 22112 28
17690 22111 22113 28
17691 22111 22114 28
17692 22111 22115 28
17693 22116 22117 28
17694 22116 22118 28
17695 22116 22119 28
17696 22116 22120 28
17697 22121 22122 28
17698 22121 22123 28
17699 22121 22124 28
17700 22121 22125 28
17701 22126 22127 28
17702 22126 22128 28
17703 22126 22129 28
17704 22126 22130 28
17705 22131 22132 28
17706 22131 22133 28
17707 22131 22134 28
17708 22131 22135 28
17709 22136 22137 28
17710 22136 22138 28
17711 22136 22139 28
17712 22136 22140 28
17713 22141 22142 28
17714 22141 22143 28
17715 22141 22144 28
17716 22141 22145 28
17717 22146 22147 28
17718 22146 22148 28
17719 22146 22149 28
17720 22146 22150 28
17721 22151 22152 28
17722 22151 22153 28
17723 22151 22154 28
17724 22151 22155 28
17725 22156 22157 28
17726 22156 22158 28
17727 22156 22159 28
17728 22156 22160 28
17729 22161 22162 28
17730 22161 22163 28
17731 22161 22164 28
17732 22161 22165 28
17733 22166 22167 28
17734 22166 22168 28
17735 22166 22169 28
17736 22166 22170 28
17737 22171 22172 28
17738 22171 22173 28
17739 22171 22174 28
17740 22171 22175 28
17741 22176 22177 28
17742 22176 22178 28
17743 22176 22179 28
17744 22176 22180 28
17745 22181 22182 28
17746 22181 22183 28
17747 22181 22184 28
17748 22181 22185 28
17749 22186 22187 28
17750 22186 22188 28
17751 22186 22189 28
17752 22186 22190 28
17753 22191 22192 28
17754 22191 22193 28
17755 22191 22194 28
17756 22191 22195 28
17757 22196 22197 28
17758 22196 22198 28
17759 22196 22199 28
17760 22196 22200 28
17761 22201 22202 28
17762 22201 22203 28
17763 22201 22204 28
17764 22201 22205 28
17765 22206 22207 28
17766 22206 22208 28
17767 22206 22209 28
17768 22206 22210 28
17769 22211 22212 28
17770 22211 22213 28
17771 22211 22214 28
17772 22211 22215 28
17773 22216 22217 28
17774 22216 22218 28
17775 22216 22219 28
17776 22216 22220 28
17777 22221 22222 28
17778 22221 22223 28
17779 22221 22224 28
17780 22221 22225 28
17781 22226 22227 28
17782 22226 22228 28
17783 22226 22229 28
17784 22226 22230 28
17785 22231 22232 28
17786 22231 22233 28
17787 22231 22234 28
17788 22231 22235 28
17789 22236 22237 28
17790 22236 22238 28
17791 22236 22239 28
17792 22236 22240 28
17793 22241 22242 28
17794 22241 22243 28
17795 22241 22244 28
17796 22241 22245 28
17797 22246 22247 28
17798 22246 22248 28
17799 22246 22249 28
17800 22246 22250 28
17801 22251 22252 28
17802 22251 22253 28
17803 22251 22254 28
17804 22251 22255 28
17805 22256 22257 28
17806 22256 22258 28
17807 22256 22259 28
17808 22256 22260 28
17809 22261 22262 28
17810 22261 22263 28
17811 22261 22264 28
17812 22261 22265 28
17813 22266 22267 28
17814 22266 22268 28
17815 22266 22269 28
17816 22266 22270 28
17817 22271 22272 28
17818 22271 22273 28
17819 22271 22274 28
17820 22271 22275 28
17821 22276 22277 28
17822 22276 22278 28
17823 22276 22279 28
17824 22276 22280 28
17825 22281 22282 28
17826 22281 22283 28
17827 22281 22284 28
17828 22281 22285 28
17829 22286 22287 28
17830 22286 22288 28
17831 22286 22289 28
17832 22286 22290 28
17833 22291 22292 28
17834 22291 22293 28
17835 22291 22294 28
17836 22291 22295 28
17837 22296 22297 28
17838 22296 22298 28
17839 22296 22299 28
17840 22296 22300 28
17841 22301 22302 28
17842 22301 22303 28
17843 22301 22304 28
17844 22301 22305 28
17845 22306 22307 28
17846 22306 22308 28
17847 22306 22309 28
17848 22306 22310 28
17849 22311 22312 28
17850 22311 22313 28
17851 22311 22314 28
17852 22311 22315 28
17853 22316 22317 28
17854 22316 22318 28
17855 22316 22319 28
17856 22316 22320 28
17857 22321 22322 28
17858 22321 22323 28
17859 22321 22324 28
17860 22321 22325 28
17861 22326 22327 28
17862 22326 22328 28
17863 22326 22329 28
17864 22326 22330 28
17865 22331 22332 28
17866 22331 22333 28
17867 22331 22334 28
17868 22331 22335 28
17869 22336 22337 28
17870 22336 22338 28
17871 22336 22339 28
17872 22336 22340 28
17873 22341 22342 28
17874 22341 22343 28
17875 22341 22344 28
17876 22341 22345 28
17877 22346 22347 28
17878 22346 22348 28
17879 22346 22349 28
17880 22346 22350 28
17881 22351 22352 28
17882 22351 22353 28
17883 22351 22354 28
17884 22351 22355 28
17885 22356 22357 28
17886 22356 22358 28
17887 22356 22359 28
17888 22356 22360 28
17889 22361 22362 28
17890 22361 22363 28
17891 22361 22364 28
17892 22361 22365 28
17893 22366 22367 28
17894 22366 22368 28
17895 22366 22369 28
17896 22366 22370 28
17897 22371 22372 28
17898 22371 22373 28
17899 22371 22374 28
17900 22371 22375 28
17901 22376 22377 28
17902 22376 22378 28
17903 22376 22379 28
17904 22376 22380 28
17905 22381 22382 28
17906 22381 22383 28
17907 22381 22384 28
17908 22381 22385 28
17909 22386 22387 28
17910 22386 22388 28
17911 22386 22389 28
17912 22386 22390 28
17913 22391 22392 28
17914 22391 22393 28
17915 22391 22394 28
17916 22391 22395 28
17917 22396 22397 28
17918 22396 22398 28
17919 22396 22399 28
17920 22396 22400 28
17921 22401 22402 28
17922 22401 22403 28
17923 22401 22404 28
17924 22401 22405 28
17925 22406 22407 28
17926 22406 22408 28
17927 22406 22409 28
17928 22406 22410 28
17929 22411 22412 28
17930 22411 22413 28
17931 22411 22414 28
17932 22411 22415 28
17933 22416 22417 28
17934 22416 22418 28
17935 22416 22419 28
17936 22416 22420 28
17937 22421 22422 28
17938 22421 22423 28
17939 22421 22424 28
17940 22421 22425 28
17941 22426 22427 28
17942 22426 22428 28
17943 22426 22429 28
17944 22426 22430 28
17945 22431 22432 28
17946 22431 22433 28
17947 22431 22434 28
17948 22431 22435 28
17949 22436 22437 28
17950 22436 22438 28
17951 22436 22439 28
17952 22436 22440 28
17953 22441 22442 28
17954 22441 22443 28
17955 22441 22444 28
17956 22441 22445 28
17957 22446 22447 28
17958 22446 22448 28
17959 22446 22449 28
17960 22446 22450 28
17961 22451 22452 28
17962 22451 22453 28
17963 22451 22454 28
17964 22451 22455 28
17965 22456 22457 28
17966 22456 22458 28
17967 22456 22459 28
17968 22456 22460 28
17969 22461 22462 28
17970 22461 22463 28
17971 22461 22464 28
17972 22461 22465 28
17973 22466 22467 28
17974 22466 22468 28
17975 22466 22469 28
17976 22466 22470 28
17977 22471 22472 28
17978 22471 22473 28
17979 22471 22474 28
17980 22471 22475 28
17981 22476 22477 28
17982 22476 22478 28
17983 22476 22479 28
17984 22476 22480 28
17985 22481 22482 28
17986 22481 22483 28
17987 22481 22484 28
17988 22481 22485 28
17989 22486 22487 28
17990 22486 22488 28
17991 22486 22489 28
17992 22486 22490 28
17993 22491 22492 28
17994 22491 22493 28
17995 22491 22494 28
17996 22491 22495 28
17997 22496 22497 28
17998 22496 22498 28
17999 22496 22499 28
18000 22496 22500 28
18001 22501 22502 28
18002 22501 22503 28
18003 22501 22504 28
18004 22501 22505 28
18005 22506 22507 28
18006 22506 22508 28
18007 22506 22509 28
18008 22506 22510 28
18009 22511 22512 28
18010 22511 22513 28
18011 22511 22514 28
18012 22511 22515 28
18013 22516 22517 28
18014 22516 22518 28
18015 22516 22519 28
18016 22516 22520 28
18017 22521 22522 28
18018 22521 22523 28
18019 22521 22524 28
18020 22521 22525 28
18021 22526 22527 28
18022 22526 22528 28
18023 22526 22529 28
18024 22526 22530 28
18025 22531 22532 28
18026 22531 22533 28
18027 22531 22534 28
18028 22531 22535 28
18029 22536 22537 28
18030 22536 22538 28
18031 22536 22539 28
18032 22536 22540 28
18033 22541 22542 28
18034 22541 22543 28
18035 22541 22544 28
18036 22541 22545 28
18037 22546 22547 28
18038 22546 22548 28
18039 22546 22549 28
18040 22546 22550 28
18041 22551 22552 28
18042 22551 22553 28
18043 22551 22554 28
18044 22551 22555 28
18045 22556 22557 28
18046 22556 22558 28
18047 22556 22559 28
18048 22556 22560 28
18049 22561 22562 28
18050 22561 22563 28
18051 22561 22564 28
18052 22561 22565 28
18053 22566 22567 28
18054 22566 22568 28
18055 22566 22569 28
18056 22566 22570 28
18057 22571 22572 28
18058 22571 22573 28
18059 22571 22574 28
18060 22571 22575 28
18061 22576 22577 28
18062 22576 22578 28
18063 22576 22579 28
18064 22576 22580 28
18065 22581 22582 28
18066 22581 22583 28
18067 22581 22584 28
18068 22581 22585 28
18069 22586 22587 28
18070 22586 22588 28
18071 22586 22589 28
18072 22586 22590 28
18073 22591 22592 28
18074 22591 22593 28
18075 22591 22594 28
18076 22591 22595 28
18077 22596 22597 28
18078 22596 22598 28
18079 22596 22599 28
18080 22596 22600 28
18081 22601 22602 28
18082 22601 22603 28
18083 22601 22604 28
18084 22601 22605 28
18085 22606 22607 28
18086 22606 22608 28
18087 22606 22609 28
18088 22606 22610 28
18089 22611 22612 28
18090 22611 22613 28
18091 22611 22614 28
18092 22611 22615 28
18093 22616 22617 28
18094 22616 22618 28
18095 22616 22619 28
18096 22616 22620 28
18097 22621 22622 28
18098 22621 22623 28
18099 22621 22624 28
18100 22621 22625 28
18101 22626 22627 28
18102 22626 22628 28
18103 22626 22629 28
18104 22626 22630 28
18105 22631 22632 28
18106 22631 22633 28
18107 22631 22634 28
18108 22631 22635 28
18109 22636 22637 28
18110 22636 22638 28
18111 22636 22639 28
18112 22636 22640 28
18113 22641 22642 28
18114 22641 22643 28
18115 22641 22644 28
18116 22641 22645 28
18117 22646 22647 28
18118 22646 22648 28
18119 22646 22649 28
18120 22646 22650 28
18121 22651 22652 28
18122 22651 22653 28
18123 22651 22654 28
18124 22651 22655 28
18125 22656 22657 28
18126 22656 22658 28
18127 22656 22659 28
18128 22656 22660 28
18129 22661 22662 28
18130 22661 22663 28
18131 22661 22664 28
18132 22661 22665 28
18133 22666 22667 28
18134 22666 22668 28
18135 22666 22669 28
18136 22666 22670 28
18137 22671 22672 28
18138 22671 22673 28
18139 22671 22674 28
18140 22671 22675 28
18141 22676 22677 28
18142 22676 22678 28
18143 22676 22679 28
18144 22676 22680 28
18145 22681 22682 28
18146 22681 22683 28
18147 22681 22684 28
18148 22681 22685 28
18149 22686 22687 28
18150 22686 22688 28
18151 22686 22689 28
18152 22686 22690 28
18153 22691 22692 28
18154 22691 22693 28
18155 22691 22694 28
18156 22691 22695 28
18157 22696 22697 28
18158 22696 22698 28
18159 22696 22699 28
18160 22696 22700 28
18161 22701 22702 28
18162 22701 22703 28
18163 22701 22704 28
18164 22701 22705 28
18165 22706 22707 28
18166 22706 22708 28
18167 22706 22709 28
18168 22706 22710 28
18169 22711 22712 28
18170 22711 22713 28
18171 22711 22714 28
18172 22711 22715 28
18173 22716 22717 28
18174 22716 22718 28
18175 22716 22719 28
18176 22716 22720 28
18177 22721 22722 28
18178 22721 22723 28
18179 22721 22724 28
18180 22721 22725 28
18181 22726 22727 28
18182 22726 22728 28
18183 22726 22729 28
18184 22726 22730 28
18185 22731 22732 28
18186 22731 22733 28
18187 22731 22734 28
18188 22731 22735 28
18189 22736 22737 28
18190 22736 22738 28
18191 22736 22739 28
18192 22736 22740 28
18193 22741 22742 28
18194 22741 22743 28
18195 22741 22744 28
18196 22741 22745 28
18197 22746 22747 28
18198 22746 22748 28
18199 22746 22749 28
18200 22746 22750 28
18201 22751 22752 28
18202 22751 22753 28
18203 22751 22754 28
18204 22751 22755 28
18205 22756 22757 28
18206 22756 22758 28
18207 22756 22759 28
18208 22756 22760 28
18209 22761 22762 28
18210 22761 22763 28
18211 22761 22764 28
18212 22761 22765 28
18213 22766 22767 28
18214 22766 22768 28
18215 22766 22769 28
18216 22766 22770 28
18217 22771 22772 28
18218 22771 22773 28
18219 22771 22774 28
18220 22771 22775 28
18221 22776 22777 28
18222 22776 22778 28
18223 22776 22779 28
18224 22776 22780 28
18225 22781 22782 28
18226 22781 22783 28
18227 22781 22784 28
18228 22781 22785 28
18229 22786 22787 28
18230 22786 22788 28
18231 22786 22789 28
18232 22786 22790 28
18233 22791 22792 28
18234 22791 22793 28
18235 22791 22794 28
18236 22791 22795 28
18237 22796 22797 28
18238 22796 22798 28
18239 22796 22799 28
18240 22796 22800 28
18241 22801 22802 28
18242 22801 22803 28
18243 22801 22804 28
18244 22801 22805 28
18245 22806 22807 28
18246 22806 22808 28
18247 22806 22809 28
18248 22806 22810 28
18249 22811 22812 28
18250 22811 22813 28
18251 22811 22814 28
18252 22811 22815 28
18253 22816 22817 28
18254 22816 22818 28
18255 22816 22819 28
18256 22816 22820 28
18257 22821 22822 28
18258 22821 22823 28
18259 22821 22824 28
18260 22821 22825 28
18261 22826 22827 28
18262 22826 22828 28
18263 22826 22829 28
18264 22826 22830 28
18265 22831 22832 28
18266 22831 22833 28
18267 22831 22834 28
18268 22831 22835 28
18269 22836 22837 28
18270 22836 22838 28
18271 22836 22839 28
18272 22836 22840 28
18273 22841 22842 28
18274 22841 22843 28
18275 22841 22844 28
18276 22841 22845 28
18277 22846 22847 28
18278 22846 22848 28
18279 22846 22849 28
18280 22846 22850 28
18281 22851 22852 28
18282 22851 22853 28
18283 22851 22854 28
18284 22851 22855 28
18285 22856 22857 28
18286 22856 22858 28
18287 22856 22859 28
18288 22856 22860 28
18289 22861 22862 28
18290 22861 22863 28
18291 22861 22864 28
18292 22861 22865 28
18293 22866 22867 28
18294 22866 22868 28
18295 22866 22869 28
18296 22866 22870 28
18297 22871 22872 28
18298 22871 22873 28
18299 22871 22874 28
18300 22871 22875 28
18301 22876 22877 28
18302 22876 22878 28
18303 22876 22879 28
18304 22876 22880 28
18305 22881 22882 28
18306 22881 22883 28
18307 22881 22884 28
18308 22881 22885 28
18309 22886 22887 28
18310 22886 22888 28
18311 22886 22889 28
18312 22886 22890 28
18313 22891 22892 28
18314 22891 22893 28
18315 22891 22894 28
18316 22891 22895 28
18317 22896 22897 28
18318 22896 22898 28
18319 22896 22899 28
18320 22896 22900 28
18321 22901 22902 28
18322 22901 22903 28
18323 22901 22904 28
18324 22901 22905 28
18325 22906 22907 28
18326 22906 22908 28
18327 22906 22909 28
18328 22906 22910 28
18329 22911 22912 28
18330 22911 22913 28
18331 22911 22914 28
18332 22911 22915 28
18333 22916 22917 28
18334 22916 22918 28
18335 22916 22919 28
18336 22916 22920 28
18337 22921 22922 28
18338 22921 22923 28
18339 22921 22924 28
18340 22921 22925 28
18341 22926 22927 28
18342 22926 22928 28
18343 22926 22929 28
18344 22926 22930 28
18345 22931 22932 28
18346 22931 22933 28
18347 22931 22934 28
18348 22931 22935 28
18349 22936 22937 28
18350 22936 22938 28
18351 22936 22939 28
18352 22936 22940 28
18353 22941 22942 28
18354 22941 22943 28
18355 22941 22944 28
18356 22941 22945 28
18357 22946 22947 28
18358 22946 22948 28
18359 22946 22949 28
18360 22946 22950 28
18361 22951 22952 28
18362 22951 22953 28
18363 22951 22954 28
18364 22951 22955 28
18365 22956 22957 28
18366 22956 22958 28
18367 22956 22959 28
18368 22956 22960 28
18369 22961 22962 28
18370 22961 22963 28
18371 22961 22964 28
18372 22961 22965 28
18373 22966 22967 28
18374 22966 22968 28
18375 22966 22969 28
18376 22966 22970 28
18377 22971 22972 28
18378 22971 22973 28
18379 22971 22974 28
18380 22971 22975 28
18381 22976 22977 28
18382 22976 22978 28
18383 22976 22979 28
18384 22976 22980 28
18385 22981 22982 28
18386 22981 22983 28
18387 22981 22984 28
18388 22981 22985 28
18389 22986 22987 28
18390 22986 22988 28
18391 22986 22989 28
18392 22986 22990 28
18393 22991 22992 28
18394 22991 22993 28
18395 22991 22994 28
18396 22991 22995 28
18397 22996 22997 28
18398 22996 22998 28
18399 22996 22999 28
18400 22996 23000 28
18401 23001 23002 28
18402 23001 23003 28
18403 23001 23004 28
18404 23001 23005 28
18405 23006 23007 28
18406 23006 23008 28
18407 23006 23009 28
18408 23006 23010 28
18409 23011 23012 28
18410 23011 23013 28
18411 23011 23014 28
18412 23011 23015 28
18413 23016 23017 28
18414 23016 23018 28
18415 23016 23019 28
18416 23016 23020 28
18417 23021 23022 28
18418 23021 23023 28
18419 23021 23024 28
18420 23021 23025 28
18421 23026 23027 28
18422 23026 23028 28
18423 23026 23029 28
18424 23026 23030 28
18425 23031 23032 28
18426 23031 23033 28
18427 23031 23034 28
18428 23031 23035 28
18429 23036 23037 28
18430 23036 23038 28
18431 23036 23039 28
18432 23036 23040 28
18433 23041 23042 28
18434 23041 23043 28
18435 23041 23044 28
18436 23041 23045 28
18437 23046 23047 28
18438 23046 23048 28
18439 23046 23049 28
18440 23046 23050 28
18441 23051 23052 28
18442 23051 23053 28
18443 23051 23054 28
18444 23051 23055 28
18445 23056 23057 28
18446 23056 23058 28
18447 23056 23059 28
18448 23056 23060 28
18449 23061 23062 28
18450 23061 23063 28
18451 23061 23064 28
18452 23061 23065 28
18453 23066 23067 28
18454 23066 23068 28
18455 23066 23069 28
18456 23066 23070 28
18457 23071 23072 28
18458 23071 23073 28
18459 23071 23074 28
18460 23071 23075 28
18461 23076 23077 28
18462 23076 23078 28
18463 23076 23079 28
18464 23076 23080 28
18465 23081 23082 28
18466 23081 23083 28
18467 23081 23084 28
18468 23081 23085 28
18469 23086 23087 28
18470 23086 23088 28
18471 23086 23089 28
18472 23086 23090 28
18473 23091 23092 28
18474 23091 23093 28
18475 23091 23094 28
18476 23091 23095 28
18477 23096 23097 28
18478 23096 23098 28
18479 23096 23099 28
18480 23096 23100 28
18481 23101 23102 28
18482 23101 23103 28
18483 23101 23104 28
18484 23101 23105 28
18485 23106 23107 28
18486 23106 23108 28
18487 23106 23109 28
18488 23106 23110 28
18489 23111 23112 28
18490 23111 23113 28
18491 23111 23114 28
18492 23111 23115 28
18493 23116 23117 28
18494 23116 23118 28
18495 23116 23119 28
18496 23116 23120 28
18497 23121 23122 28
18498 23121 23123 28
18499 23121 23124 28
18500 23121 23125 28
18501 23126 23127 28
18502 23126 23128 28
18503 23126 23129 28
18504 23126 23130 28
18505 23131 23132 28
18506 23131 23133 28
18507 23131 23134 28
18508 23131 23135 28
18509 23136 23137 28
18510 23136 23138 28
18511 23136 23139 28
18512 23136 23140 28
18513 23141 23142 28
18514 23141 23143 28
18515 23141 23144 28
18516 23141 23145 28
18517 23146 23147 28
18518 23146 23148 28
18519 23146 23149 28
18520 23146 23150 28
18521 23151 23152 28
18522 23151 23153 28
18523 23151 23154 28
18524 23151 23155 28
18525 23156 23157 28
18526 23156 23158 28
18527 23156 23159 28
18528 23156 23160 28
18529 23161 23162 28
18530 23161 23163 28
18531 23161 23164 28
18532 23161 23165 28
18533 23166 23167 28
18534 23166 23168 28
18535 23166 23169 28
18536 23166 23170 28
18537 23171 23172 28
18538 23171 23173 28
18539 23171 23174 28
18540 23171 23175 28
18541 23176 23177 28
18542 23176 23178 28
18543 23176 23179 28
18544 23176 23180 28
18545 23181 23182 28
18546 23181 23183 28
18547 23181 23184 28
18548 23181 23185 28
18549 23186 23187 28
18550 23186 23188 28
18551 23186 23189 28
18552 23186 23190 28
18553 23191 23192 28
18554 23191 23193 28
18555 23191 23194 28
18556 23191 23195 28
18557 23196 23197 28
18558 23196 23198 28
18559 23196 23199 28
18560 23196 23200 28
18561 23201 23202 28
18562 23201 23203 28
18563 23201 23204 28
18564 23201 23205 28
18565 23206 23207 28
18566 23206 23208 28
18567 23206 23209 28
18568 23206 23210 28
18569 23211 23212 28
18570 23211 23213 28
18571 23211 23214 28
18572 23211 23215 28
18573 23216 23217 28
18574 23216 23218 28
18575 23216 23219 28
18576 23216 23220 28
18577 23221 23222 28
18578 23221 23223 28
18579 23221 23224 28
18580 23221 23225 28
18581 23226 23227 28
18582 23226 23228 28
18583 23226 23229 28
18584 23226 23230 28
18585 23231 23232 28
18586 23231 23233 28
18587 23231 23234 28
18588 23231 23235 28
18589 23236 23237 28
18590 23236 23238 28
18591 23236 23239 28
18592 23236 23240 28
18593 23241 23242 28
18594 23241 23243 28
18595 23241 23244 28
18596 23241 23245 28
18597 23246 23247 28
18598 23246 23248 28
18599 23246 23249 28
18600 23246 23250 28
18601 23251 23252 28
18602 23251 23253 28
18603 23251 23254 28
18604 23251 23255 28
18605 23256 23257 28
18606 23256 23258 28
18607 23256 23259 28
18608 23256 23260 28
18609 23261 23262 28
18610 23261 23263 28
18611 23261 23264 28
18612 23261 23265 28
18613 23266 23267 28
18614 23266 23268 28
18615 23266 23269 28
18616 23266 23270 28
18617 23271 23272 28
18618 23271 23273 28
18619 23271 23274 28
18620 23271 23275 28
18621 23276 23277 28
18622 23276 23278 28
18623 23276 23279 28
18624 23276 23280 28
18625 23281 23282 28
18626 23281 23283 28
18627 23281 23284 28
18628 23281 23285 28
18629 23286 23287 28
18630 23286 23288 28
18631 23286 23289 28
18632 23286 23290 28
18633 23291 23292 28
18634 23291 23293 28
18635 23291 23294 28
18636 23291 23295 28
18637 23296 23297 28
18638 23296 23298 28
18639 23296 23299 28
18640 23296 23300 28
18641 23301 23302 28
18642 23301 23303 28
18643 23301 23304 28
18644 23301 23305 28
18645 23306 23307 28
18646 23306 23308 28
18647 23306 23309 28
18648 23306 23310 28
18649 23311 23312 28
18650 23311 23313 28
18651 23311 23314 28
18652 23311 23315 28
18653 23316 23317 28
18654 23316 23318 28
18655 23316 23319 28
18656 23316 23320 28
18657 23321 23322 28
18658 23321 23323 28
18659 23321 23324 28
18660 23321 23325 28
18661 23326 23327 28
18662 23326 23328 28
18663 23326 23329 28
18664 23326 23330 28
18665 23331 23332 28
18666 23331 23333 28
18667 23331 23334 28
18668 23331 23335 28
18669 23336 23337 28
18670 23336 23338 28
18671 23336 23339 28
18672 23336 23340 28
18673 23341 23342 28
18674 23341 23343 28
18675 23341 23344 28
18676 23341 23345 28
18677 23346 23347 28
18678 23346 23348 28
18679 23346 23349 28
18680 23346 23350 28
18681 23351 23352 28
18682 23351 23353 28
18683 23351 23354 28
18684 23351 23355 28
18685 23356 23357 28
18686 23356 23358 28
18687 23356 23359 28
18688 23356 23360 28
18689 23361 23362 28
18690 23361 23363 28
18691 23361 23364 28
18692 23361 23365 28
18693 23366 23367 28
18694 23366 23368 28
18695 23366 23369 28
18696 23366 23370 28
18697 23371 23372 28
18698 23371 23373 28
18699 23371 23374 28
18700 23371 23375 28
18701 23376 23377 28
18702 23376 23378 28
18703 23376 23379 28
18704 23376 23380 28
18705 23381 23382 28
18706 23381 23383 28
18707 23381 23384 28
18708 23381 23385 28
18709 23386 23387 28
18710 23386 23388 28
18711 23386 23389 28
18712 23386 23390 28
18713 23391 23392 28
18714 23391 23393 28
18715 23391 23394 28
18716 23391 23395 28
18717 23396 23397 28
18718 23396 23398 28
18719 23396 23399 28
18720 23396 23400 28
18721 23401 23402 28
18722 23401 23403 28
18723 23401 23404 28
18724 23401 23405 28
18725 23406 23407 28
18726 23406 23408 28
18727 23406 23409 28
18728 23406 23410 28
18729 23411 23412 28
18730 23411 23413 28
18731 23411 23414 28
18732 23411 23415 28
18733 23416 23417 28
18734 23416 23418 28
18735 23416 23419 28
18736 23416 23420 28
18737 23421 23422 28
18738 23421 23423 28
18739 23421 23424 28
18740 23421 23425 28
18741 23426 23427 28
18742 23426 23428 28
18743 23426 23429 28
18744 23426 23430 28
18745 23431 23432 28
18746 23431 23433 28
18747 23431 23434 28
18748 23431 23435 28
18749 23436 23437 28
18750 23436 23438 28
18751 23436 23439 28
18752 23436 23440 28
18753 23441 23442 28
18754 23441 23443 28
18755 23441 23444 28
18756 23441 23445 28
18757 23446 23447 28
18758 23446 23448 28
18759 23446 23449 28
18760 23446 23450 28
18761 23451 23452 28
18762 23451 23453 28
18763 23451 23454 28
18764 23451 23455 28
18765 23456 23457 28
18766 23456 23458 28
18767 23456 23459 28
18768 23456 23460 28
18769 23461 23462 28
18770 23461 23463 28
18771 23461 23464 28
18772 23461 23465 28
18773 23466 23467 28
18774 23466 23468 28
18775 23466 23469 28
18776 23466 23470 28
18777 23471 23472 28
18778 23471 23473 28
18779 23471 23474 28
18780 23471 23475 28
18781 23476 23477 28
18782 23476 23478 28
18783 23476 23479 28
18784 23476 23480 28
18785 23481 23482 28
18786 23481 23483 28
18787 23481 23484 28
18788 23481 23485 28
18789 23486 23487 28
18790 23486 23488 28
18791 23486 23489 28
18792 23486 23490 28
18793 23491 23492 28
18794 23491 23493 28
18795 23491 23494 28
18796 23491 23495 28
18797 23496 23497 28
18798 23496 23498 28
18799 23496 23499 28
18800 23496 23500 28
18801 23501 23502 28
18802 23501 23503 28
18803 23501 23504 28
18804 23501 23505 28
18805 23506 23507 28
18806 23506 23508 28
18807 23506 23509 28
18808 23506 23510 28
18809 23511 23512 28
18810 23511 23513 28
18811 23511 23514 28
18812 23511 23515 28
18813 23516 23517 28
18814 23516 23518 28
18815 23516 23519 28
18816 23516 23520 28
18817 23521 23522 28
18818 23521 23523 28
18819 23521 23524 28
18820 23521 23525 28
18821 23526 23527 28
18822 23526 23528 28
18823 23526 23529 28
18824 23526 23530 28
18825 23531 23532 28
18826 23531 23533 28
18827 23531 23534 28
18828 23531 23535 28
18829 23536 23537 28
18830 23536 23538 28
18831 23536 23539 28
18832 23536 23540 28
18833 23541 23542 28
18834 23541 23543 28
18835 23541 23544 28
18836 23541 23545 28
18837 23546 23547 28
18838 23546 23548 28
18839 23546 23549 28
18840 23546 23550 28
18841 23551 23552 28
18842 23551 23553 28
18843 23551 23554 28
18844 23551 23555 28
18845 23556 23557 28
18846 23556 23558 28
18847 23556 23559 28
18848 23556 23560 28
18849 23561 23562 28
18850 23561 23563 28
18851 23561 23564 28
18852 23561 23565 28
18853 23566 23567 28
18854 23566 23568 28
18855 23566 23569 28
18856 23566 23570 28
18857 23571 23572 28
18858 23571 23573 28
18859 23571 23574 28
18860 23571 23575 28
18861 23576 23577 28
18862 23576 23578 28
18863 23576 23579 28
18864 23576 23580 28
18865 23581 23582 28
18866 23581 23583 28
18867 23581 23584 28
18868 23581 23585 28
18869 23586 23587 28
18870 23586 23588 28
18871 23586 23589 28
18872 23586 23590 28
18873 23591 23592 28
18874 23591 23593 28
18875 23591 23594 28
18876 23591 23595 28
18877 23596 23597 28
18878 23596 23598 28
18879 23596 23599 28
18880 23596 23600 28
18881 23601 23602 28
18882 23601 23603 28
18883 23601 23604 28
18884 23601 23605 28
18885 23606 23607 28
18886 23606 23608 28
18887 23606 23609 28
18888 23606 23610 28
18889 23611 23612 28
18890 23611 23613 28
18891 23611 23614 28
18892 23611 23615 28
18893 23616 23617 28
18894 23616 23618 28
18895 23616 23619 28
18896 23616 23620 28
18897 23621 23622 28
18898 23621 23623 28
18899 23621 23624 28
18900 23621 23625 28
18901 23626 23627 28
18902 23626 23628 28
18903 23626 23629 28
18904 23626 23630 28
18905 23631 23632 28
18906 23631 23633 28
18907 23631 23634 28
18908 23631 23635 28
18909 23636 23637 28
18910 23636 23638 28
18911 23636 23639 28
18912 23636 23640 28
18913 23641 23642 28
18914 23641 23643 28
18915 23641 23644 28
18916 23641 23645 28
18917 23646 23647 28
18918 23646 23648 28
18919 23646 23649 28
18920 23646 23650 28
18921 23651 23652 28
18922 23651 23653 28
18923 23651 23654 28
18924 23651 23655 28
18925 23656 23657 28
18926 23656 23658 28
18927 23656 23659 28
18928 23656 23660 28
18929 23661 23662 28
18930 23661 23663 28
18931 23661 23664 28
18932 23661 23665 28
18933 23666 23667 28
18934 23666 23668 28
18935 23666 23669 28
18936 23666 23670 28
18937 23671 23672 28
18938 23671 23673 28
18939 23671 23674 28
18940 23671 23675 28
18941 23676 23677 28
18942 23676 23678 28
18943 23676 23679 28
18944 23676 23680 28
18945 23681 23682 28
18946 23681 23683 28
18947 23681 23684 28
18948 23681 23685 28
18949 23686 23687 28
18950 23686 23688 28
18951 23686 23689 28
18952 23686 23690 28
18953 23691 23692 28
18954 23691 23693 28
18955 23691 23694 28
18956 23691 23695 28
18957 23696 23697 28
18958 23696 23698 28
18959 23696 23699 28
18960 23696 23700 28
18961 23701 23702 28
18962 23701 23703 28
18963 23701 23704 28
18964 23701 23705 28
18965 23706 23707 28
18966 23706 23708 28
18967 23706 23709 28
18968 23706 23710 28
18969 23711 23712 28
18970 23711 23713 28
18971 23711 23714 28
18972 23711 23715 28
18973 23716 23717 28
18974 23716 23718 28
18975 23716 23719 28
18976 23716 23720 28
18977 23721 23722 28
18978 23721 23723 28
18979 23721 23724 28
18980 23721 23725 28
18981 23726 23727 28
18982 23726 23728 28
18983 23726 23729 28
18984 23726 23730 28
18985 23731 23732 28
18986 23731 23733 28
18987 23731 23734 28
18988 23731 23735 28
18989 23736 23737 28
18990 23736 23738 28
18991 23736 23739 28
18992 23736 23740 28
18993 23741 23742 28
18994 23741 23743 28
18995 23741 23744 28
18996 23741 23745 28
18997 23746 23747 28
18998 23746 23748 28
18999 23746 23749 28
19000 23746 23750 28
19001 23751 23752 28
19002 23751 23753 28
19003 23751 23754 28
19004 23751 23755 28
19005 23756 23757 28
19006 23756 23758 28
19007 23756 23759 28
19008 23756 23760 28
19009 23761 23762 28
19010 23761 23763 28
19011 23761 23764 28
19012 23761 23765 28
19013 23766 23767 28
19014 23766 23768 28
19015 23766 23769 28
19016 23766 23770 28
19017 23771 23772 28
19018 23771 23773 28
19019 23771 23774 28
19020 23771 23775 28
19021 23776 23777 28
19022 23776 23778 28
19023 23776 23779 28
19024 23776 23780 28
19025 23781 23782 28
19026 23781 23783 28
19027 23781 23784 28
19028 23781 23785 28
19029 23786 23787 28
19030 23786 23788 28
19031 23786 23789 28
19032 23786 23790 28
19033 23791 23792 28
19034 23791 23793 28
19035 23791 23794 28
19036 23791 23795 28
19037 23796 23797 28
19038 23796 23798 28
19039 23796 23799 28
19040 23796 23800 28
19041 23801 23802 28
19042 23801 23803 28
19043 23801 23804 28
19044 23801 23805 28
19045 23806 23807 28
19046 23806 23808 28
19047 23806 23809 28
19048 23806 23810 28
19049 23811 23812 28
19050 23811 23813 28
19051 23811 23814 28
19052 23811 23815 28
19053 23816 23817 28
19054 23816 23818 28
19055 23816 23819 28
19056 23816 23820 28
19057 23821 23822 28
19058 23821 23823 28
19059 23821 23824 28
19060 23821 23825 28
19061 23826 23827 28
19062 23826 23828 28
19063 23826 23829 28
19064 23826 23830 28
19065 23831 23832 28
19066 23831 23833 28
19067 23831 23834 28
19068 23831 23835 28
19069 23836 23837 28
19070 23836 23838 28
19071 23836 23839 28
19072 23836 23840 28
19073 23841 23842 28
19074 23841 23843 28
19075 23841 23844 28
19076 23841 23845 28
19077 23846 23847 28
19078 23846 23848 28
19079 23846 23849 28
19080 23846 23850 28
19081 23851 23852 28
19082 23851 23853 28
19083 23851 23854 28
19084 23851 23855 28
19085 23856 23857 28
19086 23856 23858 28
19087 23856 23859 28
19088 23856 23860 28
19089 23861 23862 28
19090 23861 23863 28
19091 23861 23864 28
19092 23861 23865 28
19093 23866 23867 28
19094 23866 23868 28
19095 23866 23869 28
19096 23866 23870 28
19097 23871 23872 28
19098 23871 23873 28
19099 23871 23874 28
19100 23871 23875 28
19101 23876 23877 28
19102 23876 23878 28
19103 23876 23879 28
19104 23876 23880 28
19105 23881 23882 28
19106 23881 23883 28
19107 23881 23884 28
19108 23881 23885 28
19109 23886 23887 28
19110 23886 23888 28
19111 23886 23889 28
19112 23886 23890 28
19113 23891 23892 28
19114 23891 23893 28
19115 23891 23894 28
19116 23891 23895 28
19117 23896 23897 28
19118 23896 23898 28
19119 23896 23899 28
19120 23896 23900 28
19121 23901 23902 28
19122 23901 23903 28
19123 23901 23904 28
19124 23901 23905 28
19125 23906 23907 28
19126 23906 23908 28
19127 23906 23909 28
19128 23906 23910 28
19129 23911 23912 28
19130 23911 23913 28
19131 23911 23914 28
19132 23911 23915 28
19133 23916 23917 28
19134 23916 23918 28
19135 23916 23919 28
19136 23916 23920 28
19137 23921 23922 28
19138 23921 23923 28
19139 23921 23924 28
19140 23921 23925 28
19141 23926 23927 28
19142 23926 23928 28
19143 23926 23929 28
19144 23926 23930 28
19145 23931 23932 28
19146 23931 23933 28
19147 23931 23934 28
19148 23931 23935 28
19149 23936 23937 28
19150 23936 23938 28
19151 23936 23939 28
19152 23936 23940 28
19153 23941 23942 28
19154 23941 23943 28
19155 23941 23944 28
19156 23941 23945 28
19157 23946 23947 28
19158 23946 23948 28
19159 23946 23949 28
19160 23946 23950 28
19161 23951 23952 28
19162 23951 23953 28
19163 23951 23954 28
19164 23951 23955 28
19165 23956 23957 28
19166 23956 23958 28
19167 23956 23959 28
19168 23956 23960 28
19169 23961 23962 28
19170 23961 23963 28
19171 23961 23964 28
19172 23961 23965 28
19173 23966 23967 28
19174 23966 23968 28
19175 23966 23969 28
19176 23966 23970 28
19177 23971 23972 28
19178 23971 23973 28
19179 23971 23974 28
19180 23971 23975 28
19181 23976 23977 28
19182 23976 23978 28
19183 23976 23979 28
19184 23976 23980 28
19185 23981 23982 28
19186 23981 23983 28
19187 23981 23984 28
19188 23981 23985 28
19189 23986 23987 28
19190 23986 23988 28
19191 23986 23989 28
19192 23986 23990 28
19193 23991 23992 28
19194 23991 23993 28
19195 23991 23994 28
19196 23991 23995 28
19197 23996 23997 28
19198 23996 23998 28
19199 23996 23999 28
19200 23996 24000 28
19201 24001 24002 28
19202 24001 24003 28
19203 24001 24004 28
19204 24001 24005 28
19205 24006 24007 28
19206 24006 24008 28
19207 24006 24009 28
19208 24006 24010 28
19209 24011 24012 28
19210 24011 24013 28
19211 24011 24014 28
19212 24011 24015 28
19213 24016 24017 28
19214 24016 24018 28
19215 24016 24019 28
19216 24016 24020 28
19217 24021 24022 28
19218 24021 24023 28
19219 24021 24024 28
19220 24021 24025 28
19221 24026 24027 28
19222 24026 24028 28
19223 24026 24029 28
19224 24026 24030 28
19225 24031 24032 28
19226 24031 24033 28
19227 24031 24034 28
19228 24031 24035 28
19229 24036 24037 28
19230 24036 24038 28
19231 24036 24039 28
19232 24036 24040 28
19233 24041 24042 28
19234 24041 24043 28
19235 24041 24044 28
19236 24041 24045 28
19237 24046 24047 28
19238 24046 24048 28
19239 24046 24049 28
19240 24046 24050 28
19241 24051 24052 28
19242 24051 24053 28
19243 24051 24054 28
19244 24051 24055 28
19245 24056 24057 28
19246 24056 24058 28
19247 24056 24059 28
19248 24056 24060 28
19249 24061 24062 28
19250 24061 24063 28
19251 24061 24064 28
19252 24061 24065 28
19253 24066 24067 28
19254 24066 24068 28
19255 24066 24069 28
19256 24066 24070 28
19257 24071 24072 28
19258 24071 24073 28
19259 24071 24074 28
19260 24071 24075 28
19261 24076 24077 28
19262 24076 24078 28
19263 24076 24079 28
19264 24076 24080 28
19265 24081 24082 28
19266 24081 24083 28
19267 24081 24084 28
19268 24081 24085 28
19269 24086 24087 28
19270 24086 24088 28
19271 24086 24089 28
19272 24086 24090 28
19273 24091 24092 28
19274 24091 24093 28
19275 24091 24094 28
19276 24091 24095 28
19277 24096 24097 28
19278 24096 24098 28
19279 24096 24099 28
19280 24096 24100 28
19281 24101 24102 28
19282 24101 24103 28
19283 24101 24104 28
19284 24101 24105 28
19285 24106 24107 28
19286 24106 24108 28
19287 24106 24109 28
19288 24106 24110 28
19289 24111 24112 28
19290 24111 24113 28
19291 24111 24114 28
19292 24111 24115 28
19293 24116 24117 28
19294 24116 24118 28
19295 24116 24119 28
19296 24116 24120 28
19297 24121 24122 28
19298 24121 24123 28
19299 24121 24124 28
19300 24121 24125 28
19301 24126 24127 28
19302 24126 24128 28
19303 24126 24129 28
19304 24126 24130 28
19305 24131 24132 28
19306 24131 24133 28
19307 24131 24134 28
19308 24131 24135 28
19309 24136 24137 28
19310 24136 24138 28
19311 24136 24139 28
19312 24136 24140 28
19313 24141 24142 28
19314 24141 24143 28
19315 24141 24144 28
19316 24141 24145 28
19317 24146 24147 28
19318 24146 24148 28
19319 24146 24149 28
19320 24146 24150 28
19321 24151 24152 28
19322 24151 24153 28
19323 24151 24154 28
19324 24151 24155 28
19325 24156 24157 28
19326 24156 24158 28
19327 24156 24159 28
19328 24156 24160 28
19329 24161 24162 28
19330 24161 24163 28
19331 24161 24164 28
19332 24161 24165 28
19333 24166 24167 28
19334 24166 24168 28
19335 24166 24169 28
19336 24166 24170 28
19337 24171 24172 28
19338 24171 24173 28
19339 24171 24174 28
19340 24171 24175 28
19341 24176 24177 28
19342 24176 24178 28
19343 24176 24179 28
19344 24176 24180 28
19345 24181 24182 28
19346 24181 24183 28
19347 24181 24184 28
19348 24181 24185 28
19349 24186 24187 28
19350 24186 24188 28
19351 24186 24189 28
19352 24186 24190 28
19353 24191 24192 28
19354 24191 24193 28
19355 24191 24194 28
19356 24191 24195 28
19357 24196 24197 28
19358 24196 24198 28
19359 24196 24199 28
19360 24196 24200 28
19361 24201 24202 28
19362 24201 24203 28
19363 24201 24204 28
19364 24201 24205 28
19365 24206 24207 28
19366 24206 24208 28
19367 24206 24209 28
19368 24206 24210 28
19369 24211 24212 28
19370 24211 24213 28
19371 24211 24214 28
19372 24211 24215 28
19373 24216 24217 28
19374 24216 24218 28
19375 24216 24219 28
19376 24216 24220 28
19377 24221 24222 28
19378 24221 24223 28
19379 24221 24224 28
19380 24221 24225 28
19381 24226 24227 28
19382 24226 24228 28
19383 24226 24229 28
19384 24226 24230 28
19385 24231 24232 28
19386 24231 24233 28
19387 24231 24234 28
19388 24231 24235 28
19389 24236 24237 28
19390 24236 24238 28
19391 24236 24239 28
19392 24236 24240 28
19393 24241 24242 28
19394 24241 24243 28
19395 24241 24244 28
19396 24241 24245 28
19397 24246 24247 28
19398 24246 24248 28
19399 24246 24249 28
19400 24246 24250 28
19401 24251 24252 28
19402 24251 24253 28
19403 24251 24254 28
19404 24251 24255 28
19405 24256 24257 28
19406 24256 24258 28
19407 24256 24259 28
19408 24256 24260 28
19409 24261 24262 28
19410 24261 24263 28
19411 24261 24264 28
19412 24261 24265 28
19413 24266 24267 28
19414 24266 24268 28
19415 24266 24269 28
19416 24266 24270 28
19417 24271 24272 28
19418 24271 24273 28
19419 24271 24274 28
19420 24271 24275 28
19421 24276 24277 28
19422 24276 24278 28
19423 24276 24279 28
19424 24276 24280 28
19425 24281 24282 28
19426 24281 24283 28
19427 24281 24284 28
19428 24281 24285 28
19429 24286 24287 28
19430 24286 24288 28
19431 24286 24289 28
19432 24286 24290 28
19433 24291 24292 28
19434 24291 24293 28
19435 24291 24294 28
19436 24291 24295 28
19437 24296 24297 28
19438 24296 24298 28
19439 24296 24299 28
19440 24296 24300 28
19441 24301 24302 28
19442 24301 24303 28
19443 24301 24304 28
19444 24301 24305 28
19445 24306 24307 28
19446 24306 24308 28
19447 24306 24309 28
19448 24306 24310 28
19449 24311 24312 28
19450 24311 24313 28
19451 24311 24314 28
19452 24311 24315 28
19453 24316 24317 28
19454 24316 24318 28
19455 24316 24319 28
19456 24316 24320 28
19457 24321 24322 28
19458 24321 24323 28
19459 24321 24324 28
19460 24321 24325 28
19461 24326 24327 28
19462 24326 24328 28
19463 24326 24329 28
19464 24326 24330 28
19465 24331 24332 28
19466 24331 24333 28
19467 24331 24334 28
19468 24331 24335 28
19469 24336 24337 28
19470 24336 24338 28
19471 24336 24339 28
19472 24336 24340 28
19473 24341 24342 28
19474 24341 24343 28
19475 24341 24344 28
19476 24341 24345 28
19477 24346 24347 28
19478 24346 24348 28
19479 24346 24349 28
19480 24346 24350 28
19481 24351 24352 28
19482 24351 24353 28
19483 24351 24354 28
19484 24351 24355 28
19485 24356 24357 28
19486 24356 24358 28
19487 24356 24359 28
19488 24356 24360 28
19489 24361 24362 28
19490 24361 24363 28
19491 24361 24364 28
19492 24361 24365 28
19493 24366 24367 28
19494 24366 24368 28
19495 24366 24369 28
19496 24366 24370 28
19497 24371 24372 28
19498 24371 24373 28
19499 24371 24374 28
19500 24371 24375 28
19501 24376 24377 28
19502 24376 24378 28
19503 24376 24379 28
19504 24376 24380 28
19505 24381 24382 28
19506 24381 24383 28
19507 24381 24384 28
19508 24381 24385 28
19509 24386 24387 28
19510 24386 24388 28
19511 24386 24389 28
19512 24386 24390 28
19513 24391 24392 28
19514 24391 24393 28
19515 24391 24394 28
19516 24391 24395 28
19517 24396 24397 28
19518 24396 24398 28
19519 24396 24399 28
19520 24396 24400 28
19521 24401 24402 28
19522 24401 24403 28
19523 24401 24404 28
19524 24401 24405 28
19525 24406 24407 28
19526 24406 24408 28
19527 24406 24409 28
19528 24406 24410 28
19529 24411 24412 28
19530 24411 24413 28
19531 24411 24414 28
19532 24411 24415 28
19533 24416 24417 28
19534 24416 24418 28
19535 24416 24419 28
19536 24416 24420 28
19537 24421 24422 28
19538 24421 24423 28
19539 24421 24424 28
19540 24421 24425 28
19541 24426 24427 28
19542 24426 24428 28
19543 24426 24429 28
19544 24426 24430 28
19545 24431 24432 28
19546 24431 24433 28
19547 24431 24434 28
19548 24431 24435 28
19549 24436 24437 28
19550 24436 24438 28
19551 24436 24439 28
19552 24436 24440 28
19553 24441 24442 28
19554 24441 24443 28
19555 24441 24444 28
19556 24441 24445 28
19557 24446 24447 28
19558 24446 24448 28
19559 24446 24449 28
19560 24446 24450 28
19561 24451 24452 28
19562 24451 24453 28
19563 24451 24454 28
19564 24451 24455 28
19565 24456 24457 28
19566 24456 24458 28
19567 24456 24459 28
19568 24456 24460 28
19569 24461 24462 28
19570 24461 24463 28
19571 24461 24464 28
19572 24461 24465 28
19573 24466 24467 28
19574 24466 24468 28
19575 24466 24469 28
19576 24466 24470 28
19577 24471 24472 28
19578 24471 24473 28
19579 24471 24474 28
19580 24471 24475 28
19581 24476 24477 28
19582 24476 24478 28
19583 24476 24479 28
19584 24476 24480 28
19585 24481 24482 28
19586 24481 24483 28
19587 24481 24484 28
19588 24481 24485 28
19589 24486 24487 28
19590 24486 24488 28
19591 24486 24489 28
19592 24486 24490 28
19593 24491 24492 28
19594 24491 24493 28
19595 24491 24494 28
19596 24491 24495 28
19597 24496 24497 28
19598 24496 24498 28
19599 24496 24499 28
19600 24496 24500 28
19601 24501 24502 28
19602 24501 24503 28
19603 24501 24504 28
19604 24501 24505 28
19605 24506 24507 28
19606 24506 24508 28
19607 24506 24509 28
19608 24506 24510 28
19609 24511 24512 28
19610 24511 24513 28
19611 24511 24514 28
19612 24511 24515 28
19613 24516 24517 28
19614 24516 24518 28
19615 24516 24519 28
19616 24516 24520 28
19617 24521 24522 28
19618 24521 24523 28
19619 24521 24524 28
19620 24521 24525 28
19621 24526 24527 28
19622 24526 24528 28
19623 24526 24529 28
19624 24526 24530 28
19625 24531 24532 28
19626 24531 24533 28
19627 24531 24534 28
19628 24531 24535 28
19629 24536 24537 28
19630 24536 24538 28
19631 24536 24539 28
19632 24536 24540 28
19633 24541 24542 28
19634 24541 24543 28
19635 24541 24544 28
19636 24541 24545 28
19637 24546 24547 28
19638 24546 24548 28
19639 24546 24549 28
19640 24546 24550 28
19641 24551 24552 28
19642 24551 24553 28
19643 24551 24554 28
19644 24551 24555 28
19645 24556 24557 28
19646 24556 24558 28
19647 24556 24559 28
19648 24556 24560 28
19649 24561 24562 28
19650 24561 24563 28
19651 24561 24564 28
19652 24561 24565 28
19653 24566 24567 28
19654 24566 24568 28
19655 24566 24569 28
19656 24566 24570 28
19657 24571 24572 28
19658 24571 24573 28
19659 24571 24574 28
19660 24571 24575 28
19661 24576 24577 28
19662 24576 24578 28
19663 24576 24579 28
19664 24576 24580 28
19665 24581 24582 28
19666 24581 24583 28
19667 24581 24584 28
19668 24581 24585 28
19669 24586 24587 28
19670 24586 24588 28
19671 24586 24589 28
19672 24586 24590 28
19673 24591 24592 28
19674 24591 24593 28
19675 24591 24594 28
19676 24591 24595 28
19677 24596 24597 28
19678 24596 24598 28
19679 24596 24599 28
19680 24596 24600 28
19681 24601 24602 28
19682 24601 24603 28
19683 24601 24604 28
19684 24601 24605 28
19685 24606 24607 28
19686 24606 24608 28
19687 24606 24609 28
19688 24606 24610 28
19689 24611 24612 28
19690 24611 24613 28
19691 24611 24614 28
19692 24611 24615 28
19693 24616 24617 28
19694 24616 24618 28
19695 24616 24619 28
19696 24616 24620 28
19697 24621 24622 28
19698 24621 24623 28
19699 24621 24624 28
19700 24621 24625 28
19701 24626 24627 28
19702 24626 24628 28
19703 24626 24629 28
19704 24626 24630 28
19705 24631 24632 28
19706 24631 24633 28
19707 24631 24634 28
19708 24631 24635 28
19709 24636 24637 28
19710 24636 24638 28
19711 24636 24639 28
19712 24636 24640 28
19713 24641 24642 28
19714 24641 24643 28
19715 24641 24644 28
19716 24641 24645 28
19717 24646 24647 28
19718 24646 24648 28
19719 24646 24649 28
19720 24646 24650 28
19721 24651 24652 28
19722 24651 24653 28
19723 24651 24654 28
19724 24651 24655 28
19725 24656 24657 28
19726 24656 24658 28
19727 24656 24659 28
19728 24656 24660 28
19729 24661 24662 28
19730 24661 24663 28
19731 24661 24664 28
19732 24661 24665 28
19733 24666 24667 28
19734 24666 24668 28
19735 24666 24669 28
19736 24666 24670 28
19737 24671 24672 28
19738 24671 24673 28
19739 24671 24674 28
19740 24671 24675 28
19741 24676 24677 28
19742 24676 24678 28
19743 24676 24679 28
19744 24676 24680 28
19745 24681 24682 28
19746 24681 24683 28
19747 24681 24684 28
19748 24681 24685 28
19749 24686 24687 28
19750 24686 24688 28
19751 24686 24689 28
19752 24686 24690 28
19753 24691 24692 28
19754 24691 24693 28
19755 24691 24694 28
19756 24691 24695 28
19757 24696 24697 28
19758 24696 24698 28
19759 24696 24699 28
19760 24696 24700 28
19761 24701 24702 28
19762 24701 24703 28
19763 24701 24704 28
19764 24701 24705 28
19765 24706 24707 28
19766 24706 24708 28
19767 24706 24709 28
19768 24706 24710 28
19769 24711 24712 28
19770 24711 24713 28
19771 24711 24714 28
19772 24711 24715 28
19773 24716 24717 28
19774 24716 24718 28
19775 24716 24719 28
19776 24716 24720 28
19777 24721 24722 28
19778 24721 24723 28
19779 24721 24724 28
19780 24721 24725 28
19781 24726 24727 28
19782 24726 24728 28
19783 24726 24729 28
19784 24726 24730 28
19785 24731 24732 28
19786 24731 24733 28
19787 24731 24734 28
19788 24731 24735 28
19789 24736 24737 28
19790 24736 24738 28
19791 24736 24739 28
19792 24736 24740 28
19793 24741 24742 28
19794 24741 24743 28
19795 24741 24744 28
19796 24741 24745 28
19797 24746 24747 28
19798 24746 24748 28
19799 24746 24749 28
19800 24746 24750 28
19801 24751 24752 28
19802 24751 24753 28
19803 24751 24754 28
19804 24751 24755 28
19805 24756 24757 28
19806 24756 24758 28
19807 24756 24759 28
19808 24756 24760 28
19809 24761 24762 28
19810 24761 24763 28
19811 24761 24764 28
19812 24761 24765 28
19813 24766 24767 28
19814 24766 24768 28
19815 24766 24769 28
19816 24766 24770 28
19817 24771 24772 28
19818 24771 24773 28
19819 24771 24774 28
19820 24771 24775 28
19821 24776 24777 28
19822 24776 24778 28
19823 24776 24779 28
19824 24776 24780 28
19825 24781 24782 28
19826 24781 24783 28
19827 24781 24784 28
19828 24781 24785 28
19829 24786 24787 28
19830 24786 24788 28
19831 24786 24789 28
19832 24786 24790 28
19833 24791 24792 28
19834 24791 24793 28
19835 24791 24794 28
19836 24791 24795 28
19837 24796 24797 28
19838 24796 24798 28
19839 24796 24799 28
19840 24796 24800 28
19841 24801 24802 28
19842 24801 24803 28
19843 24801 24804 28
19844 24801 24805 28
19845 24806 24807 28
19846 24806 24808 28
19847 24806 24809 28
19848 24806 24810 28
19849 24811 24812 28
19850 24811 24813 28
19851 24811 24814 28
19852 24811 24815 28
19853 24816 24817 28
19854 24816 24818 28
19855 24816 24819 28
19856 24816 24820 28
19857 24821 24822 28
19858 24821 24823 28
19859 24821 24824 28
19860 24821 24825 28
19861 24826 24827 28
19862 24826 24828 28
19863 24826 24829 28
19864 24826 24830 28
19865 24831 24832 28
19866 24831 24833 28
19867 24831 24834 28
19868 24831 24835 28
19869 24836 24837 28
19870 24836 24838 28
19871 24836 24839 28
19872 24836 24840 28
19873 24841 24842 28
19874 24841 24843 28
19875 24841 24844 28
19876 24841 24845 28
19877 24846 24847 28
19878 24846 24848 28
19879 24846 24849 28
19880 24846 24850 28
19881 24851 24852 28
19882 24851 24853 28
19883 24851 24854 28
19884 24851 24855 28
19885 24856 24857 28
19886 24856 24858 28
19887 24856 24859 28
19888 24856 24860 28
19889 24861 24862 28
19890 24861 24863 28
19891 24861 24864 28
19892 24861 24865 28
19893 24866 24867 28
19894 24866 24868 28
19895 24866 24869 28
19896 24866 24870 28
19897 24871 24872 28
19898 24871 24873 28
19899 24871 24874 28
19900 24871 24875 28
19901 24876 24877 28
19902 24876 24878 28
19903 24876 24879 28
19904 24876 24880 28
19905 24881 24882 28
19906 24881 24883 28
19907 24881 24884 28
19908 24881 24885 28
19909 24886 24887 28
19910 24886 24888 28
19911 24886 24889 28
19912 24886 24890 28
19913 24891 24892 28
19914 24891 24893 28
19915 24891 24894 28
19916 24891 24895 28
19917 24896 24897 28
19918 24896 24898 28
19919 24896 24899 28
19920 24896 24900 28
19921 24901 24902 28
19922 24901 24903 28
19923 24901 24904 28
19924 24901 24905 28
19925 24906 24907 28
19926 24906 24908 28
19927 24906 24909 28
19928 24906 24910 28
19929 24911 24912 28
19930 24911 24913 28
19931 24911 24914 28
19932 24911 24915 28
19933 24916 24917 28
19934 24916 24918 28
19935 24916 24919 28
19936 24916 24920 28
19937 24921 24922 28
19938 24921 24923 28
19939 24921 24924 28
19940 24921 24925 28
19941 24926 24927 28
19942 24926 24928 28
19943 24926 24929 28
19944 24926 24930 28
19945 24931 24932 28
19946 24931 24933 28
19947 24931 24934 28
19948 24931 24935 28
19949 24936 24937 28
19950 24936 24938 28
19951 24936 24939 28
19952 24936 24940 28
19953 24941 24942 28
19954 24941 24943 28
19955 24941 24944 28
19956 24941 24945 28
19957 24946 24947 28
19958 24946 24948 28
19959 24946 24949 28
19960 24946 24950 28
19961 24951 24952 28
19962 24951 24953 28
19963 24951 24954 28
19964 24951 24955 28
19965 24956 24957 28
19966 24956 24958 28
19967 24956 24959 28
19968 24956 24960 28
19969 24961 24962 28
19970 24961 24963 28
19971 24961 24964 28
19972 24961 24965 28
19973 24966 24967 28
19974 24966 24968 28
19975 24966 24969 28
19976 24966 24970 28
19977 24971 24972 28
19978 24971 24973 28
19979 24971 24974 28
19980 24971 24975 28
19981 24976 24977 28
19982 24976 24978 28
19983 24976 24979 28
19984 24976 24980 28
19985 24981 24982 28
19986 24981 24983 28
19987 24981 24984 28
19988 24981 24985 28
19989 24986 24987 28
19990 24986 24988 28
19991 24986 24989 28
19992 24986 24990 28
19993 24991 24992 28
19994 24991 24993 28
19995 24991 24994 28
19996 24991 24995 28
19997 24996 24997 28
19998 24996 24998 28
19999 24996 24999 28
20000 24996 25000 28
20001 25001 25002 28
20002 25001 25003 28
20003 25001 25004 28
20004 25001 25005 28
20005 25006 25007 28
20006 25006 25008 28
20007 25006 25009 28
20008 25006 25010 28
20009 25011 25012 28
20010 25011 25013 28
20011 25011 25014 28
20012 25011 25015 28
20013 25016 25017 28
20014 25016 25018 28
20015 25016 25019 28
20016 25016 25020 28
20017 25021 25022 28
20018 25021 25023 28
20019 25021 25024 28
20020 25021 25025 28
20021 25026 25027 28
20022 25026 25028 28
20023 25026 25029 28
20024 25026 25030 28
20025 25031 25032 28
20026 25031 25033 28
20027 25031 25034 28
20028 25031 25035 28
20029 25036 25037 28
20030 25036 25038 28
20031 25036 25039 28
20032 25036 25040 28
20033 25041 25042 28
20034 25041 25043 28
20035 25041 25044 28
20036 25041 25045 28
20037 25046 25047 28
20038 25046 25048 28
20039 25046 25049 28
20040 25046 25050 28
20041 25051 25052 28
20042 25051 25053 28
20043 25051 25054 28
20044 25051 25055 28
20045 25056 25057 28
20046 25056 25058 28
20047 25056 25059 28
20048 25056 25060 28
20049 25061 25062 28
20050 25061 25063 28
20051 25061 25064 28
20052 25061 25065 28
20053 25066 25067 28
20054 25066 25068 28
20055 25066 25069 28
20056 25066 25070 28
20057 25071 25072 28
20058 25071 25073 28
20059 25071 25074 28
20060 25071 25075 28
20061 25076 25077 28
20062 25076 25078 28
20063 25076 25079 28
20064 25076 25080 28
20065 25081 25082 28
20066 25081 25083 28
20067 25081 25084 28
20068 25081 25085 28
20069 25086 25087 28
20070 25086 25088 28
20071 25086 25089 28
20072 25086 25090 28
20073 25091 25092 28
20074 25091 25093 28
20075 25091 25094 28
20076 25091 25095 28
20077 25096 25097 28
20078 25096 25098 28
20079 25096 25099 28
20080 25096 25100 28
20081 25101 25102 28
20082 25101 25103 28
20083 25101 25104 28
20084 25101 25105 28
20085 25106 25107 28
20086 25106 25108 28
20087 25106 25109 28
20088 25106 25110 28
20089 25111 25112 28
20090 25111 25113 28
20091 25111 25114 28
20092 25111 25115 28
20093 25116 25117 28
20094 25116 25118 28
20095 25116 25119 28
20096 25116 25120 28
20097 25121 25122 28
20098 25121 25123 28
20099 25121 25124 28
20100 25121 25125 28
20101 25126 25127 28
20102 25126 25128 28
20103 25126 25129 28
20104 25126 25130 28
20105 25131 25132 28
20106 25131 25133 28
20107 25131 25134 28
20108 25131 25135 28
20109 25136 25137 28
20110 25136 25138 28
20111 25136 25139 28
20112 25136 25140 28
20113 25141 25142 28
20114 25141 25143 28
20115 25141 25144 28
20116 25141 25145 28
20117 25146 25147 28
20118 25146 25148 28
20119 25146 25149 28
20120 25146 25150 28
20121 25151 25152 28
20122 25151 25153 28
20123 25151 25154 28
20124 25151 25155 28
20125 25156 25157 28
20126 25156 25158 28
20127 25156 25159 28
20128 25156 25160 28
20129 25161 25162 28
20130 25161 25163 28
20131 25161 25164 28
20132 25161 25165 28
20133 25166 25167 28
20134 25166 25168 28
20135 25166 25169 28
20136 25166 25170 28
20137 25171 25172 28
20138 25171 25173 28
20139 25171 25174 28
20140 25171 25175 28
20141 25176 25177 28
20142 25176 25178 28
20143 25176 25179 28
20144 25176 25180 28
20145 25181 25182 28
20146 25181 25183 28
20147 25181 25184 28
20148 25181 25185 28
20149 25186 25187 28
20150 25186 25188 28
20151 25186 25189 28
20152 25186 25190 28
20153 25191 25192 28
20154 25191 25193 28
20155 25191 25194 28
20156 25191 25195 28
20157 25196 25197 28
20158 25196 25198 28
20159 25196 25199 28
20160 25196 25200 28
20161 25201 25202 28
20162 25201 25203 28
20163 25201 25204 28
20164 25201 25205 28
20165 25206 25207 28
20166 25206 25208 28
20167 25206 25209 28
20168 25206 25210 28
20169 25211 25212 28
20170 25211 25213 28
20171 25211 25214 28
20172 25211 25215 28
20173 25216 25217 28
20174 25216 25218 28
20175 25216 25219 28
20176 25216 25220 28
20177 25221 25222 28
20178 25221 25223 28
20179 25221 25224 28
20180 25221 25225 28
20181 25226 25227 28
20182 25226 25228 28
20183 25226 25229 28
20184 25226 25230 28
20185 25231 25232 28
20186 25231 25233 28
20187 25231 25234 28
20188 25231 25235 28
20189 25236 25237 28
20190 25236 25238 28
20191 25236 25239 28
20192 25236 25240 28
20193 25241 25242 28
20194 25241 25243 28
20195 25241 25244 28
20196 25241 25245 28
20197 25246 25247 28
20198 25246 25248 28
20199 25246 25249 28
20200 25246 25250 28
20201 25251 25252 28
20202 25251 25253 28
20203 25251 25254 28
20204 25251 25255 28
20205 25256 25257 28
20206 25256 25258 28
20207 25256 25259 28
20208 25256 25260 28
20209 25261 25262 28
20210 25261 25263 28
20211 25261 25264 28
20212 25261 25265 28
20213 25266 25267 28
20214 25266 25268 28
20215 25266 25269 28
20216 25266 25270 28
20217 25271 25272 28
20218 25271 25273 28
20219 25271 25274 28
20220 25271 25275 28
20221 25276 25277 28
20222 25276 25278 28
20223 25276 25279 28
20224 25276 25280 28
20225 25281 25282 28
20226 25281 25283 28
20227 25281 25284 28
20228 25281 25285 28
20229 25286 25287 28
20230 25286 25288 28
20231 25286 25289 28
20232 25286 25290 28
20233 25291 25292 28
20234 25291 25293 28
20235 25291 25294 28
20236 25291 25295 28
20237 25296 25297 28
20238 25296 25298 28
20239 25296 25299 28
20240 25296 25300 28
20241 25301 25302 28
20242 25301 25303 28
20243 25301 25304 28
20244 25301 25305 28
20245 25306 25307 28
20246 25306 25308 28
20247 25306 25309 28
20248 25306 25310 28
20249 25311 25312 28
20250 25311 25313 28
20251 25311 25314 28
20252 25311 25315 28
20253 25316 25317 28
20254 25316 25318 28
20255 25316 25319 28
20256 25316 25320 28
20257 25321 25322 28
20258 25321 25323 28
20259 25321 25324 28
20260 25321 25325 28
20261 25326 25327 28
20262 25326 25328 28
20263 25326 25329 28
20264 25326 25330 28
20265 25331 25332 28
20266 25331 25333 28
20267 25331 25334 28
20268 25331 25335 28
20269 25336 25337 28
20270 25336 25338 28
20271 25336 25339 28
20272 25336 25340 28
20273 25341 25342 28
20274 25341 25343 28
20275 25341 25344 28
20276 25341 25345 28
20277 25346 25347 28
20278 25346 25348 28
20279 25346 25349 28
20280 25346 25350 28
20281 25351 25352 28
20282 25351 25353 28
20283 25351 25354 28
20284 25351 25355 28
20285 25356 25357 28
20286 25356 25358 28
20287 25356 25359 28
20288 25356 25360 28
20289 25361 25362 28
20290 25361 25363 28
20291 25361 25364 28
20292 25361 25365 28
20293 25366 25367 28
20294 25366 25368 28
20295 25366 25369 28
20296 25366 25370 28
20297 25371 25372 28
20298 25371 25373 28
20299 25371 25374 28
20300 25371 25375 28
20301 25376 25377 28
20302 25376 25378 28
20303 25376 25379 28
20304 25376 25380 28
20305 25381 25382 28
20306 25381 25383 28
20307 25381 25384 28
20308 25381 25385 28
20309 25386 25387 28
20310 25386 25388 28
20311 25386 25389 28
20312 25386 25390 28
20313 25391 25392 28
20314 25391 25393 28
20315 25391 25394 28
20316 25391 25395 28
20317 25396 25397 28
20318 25396 25398 28
20319 25396 25399 28
20320 25396 25400 28
20321 25401 25402 28
20322 25401 25403 28
20323 25401 25404 28
20324 25401 25405 28
20325 25406 25407 28
20326 25406 25408 28
20327 25406 25409 28
20328 25406 25410 28
20329 25411 25412 28
20330 25411 25413 28
20331 25411 25414 28
20332 25411 25415 28
20333 25416 25417 28
20334 25416 25418 28
20335 25416 25419 28
20336 25416 25420 28
20337 25421 25422 28
20338 25421 25423 28
20339 25421 25424 28
20340 25421 25425 28
20341 25426 25427 28
20342 25426 25428 28
20343 25426 25429 28
20344 25426 25430 28
20345 25431 25432 28
20346 25431 25433 28
20347 25431 25434 28
20348 25431 25435 28
20349 25436 25437 28
20350 25436 25438 28
20351 25436 25439 28
20352 25436 25440 28
20353 25441 25442 28
20354 25441 25443 28
20355 25441 25444 28
20356 25441 25445 28
20357 25446 25447 28
20358 25446 25448 28
20359 25446 25449 28
20360 25446 25450 28
20361 25451 25452 28
20362 25451 25453 28
20363 25451 25454 28
20364 25451 25455 28
20365 25456 25457 28
20366 25456 25458 28
20367 25456 25459 28
20368 25456 25460 28
20369 25461 25462 28
20370 25461 25463 28
20371 25461 25464 28
20372 25461 25465 28
20373 25466 25467 28
20374 25466 25468 28
20375 25466 25469 28
20376 25466 25470 28
20377 25471 25472 28
20378 25471 25473 28
20379 25471 25474 28
20380 25471 25475 28
20381 25476 25477 28
20382 25476 25478 28
20383 25476 25479 28
20384 25476 25480 28
20385 25481 25482 28
20386 25481 25483 28
20387 25481 25484 28
20388 25481 25485 28
20389 25486 25487 28
20390 25486 25488 28
20391 25486 25489 28
20392 25486 25490 28
20393 25491 25492 28
20394 25491 25493 28
20395 25491 25494 28
20396 25491 25495 28
20397 25496 25497 28
20398 25496 25498 28
20399 25496 25499 28
20400 25496 25500 28
20401 25501 25502 28
20402 25501 25503 28
20403 25501 25504 28
20404 25501 25505 28
20405 25506 25507 28
20406 25506 25508 28
20407 25506 25509 28
20408 25506 25510 28
20409 25511 25512 28
20410 25511 25513 28
20411 25511 25514 28
20412 25511 25515 28
20413 25516 25517 28
20414 25516 25518 28
20415 25516 25519 28
20416 25516 25520 28
20417 25521 25522 28
20418 25521 25523 28
20419 25521 25524 28
20420 25521 25525 28
20421 25526 25527 28
20422 25526 25528 28
20423 25526 25529 28
20424 25526 25530 28
20425 25531 25532 28
20426 25531 25533 28
20427 25531 25534 28
20428 25531 25535 28
20429 25536 25537 28
20430 25536 25538 28
20431 25536 25539 28
20432 25536 25540 28
20433 25541 25542 28
20434 25541 25543 28
20435 25541 25544 28
20436 25541 25545 28
20437 25546 25547 28
20438 25546 25548 28
20439 25546 25549 28
20440 25546 25550 28
20441 25551 25552 28
20442 25551 25553 28
20443 25551 25554 28
20444 25551 25555 28
20445 25556 25557 28
20446 25556 25558 28
20447 25556 25559 28
20448 25556 25560 28
20449 25561 25562 28
20450 25561 25563 28
20451 25561 25564 28
20452 25561 25565 28
20453 25566 25567 28
20454 25566 25568 28
20455 25566 25569 28
20456 25566 25570 28
20457 25571 25572 28
20458 25571 25573 28
20459 25571 25574 28
20460 25571 25575 28
20461 25576 25577 28
20462 25576 25578 28
20463 25576 25579 28
20464 25576 25580 28
20465 25581 25582 28
20466 25581 25583 28
20467 25581 25584 28
20468 25581 25585 28
20469 25586 25587 28
20470 25586 25588 28
20471 25586 25589 28
20472 25586 25590 28
20473 25591 25592 28
20474 25591 25593 28
20475 25591 25594 28
20476 25591 25595 28
20477 25596 25597 28
20478 25596 25598 28
20479 25596 25599 28
20480 25596 25600 28
20481 25601 25602 28
20482 25601 25603 28
20483 25601 25604 28
20484 25601 25605 28
20485 25606 25607 28
20486 25606 25608 28
20487 25606 25609 28
20488 25606 25610 28
20489 25611 25612 28
20490 25611 25613 28
20491 25611 25614 28
20492 25611 25615 28
20493 25616 25617 28
20494 25616 25618 28
20495 25616 25619 28
20496 25616 25620 28
20497 25621 25622 28
20498 25621 25623 28
20499 25621 25624 28
20500 25621 25625 28
20501 25626 25627 28
20502 25626 25628 28
20503 25626 25629 28
20504 25626 25630 28
20505 25631 25632 28
20506 25631 25633 28
20507 25631 25634 28
20508 25631 25635 28
20509 25636 25637 28
20510 25636 25638 28
20511 25636 25639 28
20512 25636 25640 28
20513 25641 25642 28
20514 25641 25643 28
20515 25641 25644 28
20516 25641 25645 28
20517 25646 25647 28
20518 25646 25648 28
20519 25646 25649 28
20520 25646 25650 28
20521 25651 25652 28
20522 25651 25653 28
20523 25651 25654 28
20524 25651 25655 28
20525 25656 25657 28
20526 25656 25658 28
20527 25656 25659 28
20528 25656 25660 28
20529 25661 25662 28
20530 25661 25663 28
20531 25661 25664 28
20532 25661 25665 28
20533 25666 25667 28
20534 25666 25668 28
20535 25666 25669 28
20536 25666 25670 28
20537 25671 25672 28
20538 25671 25673 28
20539 25671 25674 28
20540 25671 25675 28
20541 25676 25677 28
20542 25676 25678 28
20543 25676 25679 28
20544 25676 25680 28
20545 25681 25682 28
20546 25681 25683 28
20547 25681 25684 28
20548 25681 25685 28
20549 25686 25687 28
20550 25686 25688 28
20551 25686 25689 28
20552 25686 25690 28
20553 25691 25692 28
20554 25691 25693 28
20555 25691 25694 28
20556 25691 25695 28
20557 25696 25697 28
20558 25696 25698 28
20559 25696 25699 28
20560 25696 25700 28
20561 25701 25702 28
20562 25701 25703 28
20563 25701 25704 28
20564 25701 25705 28
20565 25706 25707 28
20566 25706 25708 28
20567 25706 25709 28
20568 25706 25710 28
20569 25711 25712 28
20570 25711 25713 28
20571 25711 25714 28
20572 25711 25715 28
20573 25716 25717 28
20574 25716 25718 28
20575 25716 25719 28
20576 25716 25720 28
20577 25721 25722 28
20578 25721 25723 28
20579 25721 25724 28
20580 25721 25725 28
20581 25726 25727 28
20582 25726 25728 28
20583 25726 25729 28
20584 25726 25730 28
20585 25731 25732 28
20586 25731 25733 28
20587 25731 25734 28
20588 25731 25735 28
20589 25736 25737 28
20590 25736 25738 28
20591 25736 25739 28
20592 25736 25740 28
20593 25741 25742 28
20594 25741 25743 28
20595 25741 25744 28
20596 25741 25745 28
20597 25746 25747 28
20598 25746 25748 28
20599 25746 25749 28
20600 25746 25750 28
20601 25751 25752 28
20602 25751 25753 28
20603 25751 25754 28
20604 25751 25755 28
20605 25756 25757 28
20606 25756 25758 28
20607 25756 25759 28
20608 25756 25760 28
20609 25761 25762 28
20610 25761 25763 28
20611 25761 25764 28
20612 25761 25765 28
20613 25766 25767 28
20614 25766 25768 28
20615 25766 25769 28
20616 25766 25770 28
20617 25771 25772 28
20618 25771 25773 28
20619 25771 25774 28
20620 25771 25775 28
20621 25776 25777 28
20622 25776 25778 28
20623 25776 25779 28
20624 25776 25780 28
20625 25781 25782 28
20626 25781 25783 28
20627 25781 25784 28
20628 25781 25785 28
20629 25786 25787 28
20630 25786 25788 28
20631 25786 25789 28
20632 25786 25790 28
20633 25791 25792 28
20634 25791 25793 28
20635 25791 25794 28
20636 25791 25795 28
20637 25796 25797 28
20638 25796 25798 28
20639 25796 25799 28
20640 25796 25800 28
20641 25801 25802 28
20642 25801 25803 28
20643 25801 25804 28
20644 25801 25805 28
20645 25806 25807 28
20646 25806 25808 28
20647 25806 25809 28
20648 25806 25810 28
20649 25811 25812 28
20650 25811 25813 28
20651 25811 25814 28
20652 25811 25815 28
20653 25816 25817 28
20654 25816 25818 28
20655 25816 25819 28
20656 25816 25820 28
20657 25821 25822 28
20658 25821 25823 28
20659 25821 25824 28
20660 25821 25825 28
20661 25826 25827 28
20662 25826 25828 28
20663 25826 25829 28
20664 25826 25830 28
20665 25831 25832 28
20666 25831 25833 28
20667 25831 25834 28
20668 25831 25835 28
20669 25836 25837 28
20670 25836 25838 28
20671 25836 25839 28
20672 25836 25840 28
20673 25841 25842 28
20674 25841 25843 28
20675 25841 25844 28
20676 25841 25845 28
20677 25846 25847 28
20678 25846 25848 28
20679 25846 25849 28
20680 25846 25850 28
20681 25851 25852 28
20682 25851 25853 28
20683 25851 25854 28
20684 25851 25855 28
20685 25856 25857 28
20686 25856 25858 28
20687 25856 25859 28
20688 25856 25860 28
20689 25861 25862 28
20690 25861 25863 28
20691 25861 25864 28
20692 25861 25865 28
20693 25866 25867 28
20694 25866 25868 28
20695 25866 25869 28
20696 25866 25870 28
20697 25871 25872 28
20698 25871 25873 28
20699 25871 25874 28
20700 25871 25875 28
20701 25876 25877 28
20702 25876 25878 28
20703 25876 25879 28
20704 25876 25880 28
20705 25881 25882 28
20706 25881 25883 28
20707 25881 25884 28
20708 25881 25885 28
20709 25886 25887 28
20710 25886 25888 28
20711 25886 25889 28
20712 25886 25890 28
20713 25891 25892 28
20714 25891 25893 28
20715 25891 25894 28
20716 25891 25895 28
20717 25896 25897 28
20718 25896 25898 28
20719 25896 25899 28
20720 25896 25900 28
20721 25901 25902 28
20722 25901 25903 28
20723 25901 25904 28
20724 25901 25905 28
20725 25906 25907 28
20726 25906 25908 28
20727 25906 25909 28
20728 25906 25910 28
20729 25911 25912 28
20730 25911 25913 28
20731 25911 25914 28
20732 25911 25915 28
20733 25916 25917 28
20734 25916 25918 28
20735 25916 25919 28
20736 25916 25920 28
20737 25921 25922 28
20738 25921 25923 28
20739 25921 25924 28
20740 25921 25925 28
20741 25926 25927 28
20742 25926 25928 28
20743 25926 25929 28
20744 25926 25930 28
20745 25931 25932 28
20746 25931 25933 28
20747 25931 25934 28
20748 25931 25935 28
20749 25936 25937 28
20750 25936 25938 28
20751 25936 25939 28
20752 25936 25940 28
20753 25941 25942 28
20754 25941 25943 28
20755 25941 25944 28
20756 25941 25945 28
20757 25946 25947 28
20758 25946 25948 28
20759 25946 25949 28
20760 25946 25950 28
20761 25951 25952 28
20762 25951 25953 28
20763 25951 25954 28
20764 25951 25955 28
20765 25956 25957 28
20766 25956 25958 28
20767 25956 25959 28
20768 25956 25960 28
20769 25961 25962 28
20770 25961 25963 28
20771 25961 25964 28
20772 25961 25965 28
20773 25966 25967 28
20774 25966 25968 28
20775 25966 25969 28
20776 25966 25970 28
20777 25971 25972 28
20778 25971 25973 28
20779 25971 25974 28
20780 25971 25975 28
20781 25976 25977 28
20782 25976 25978 28
20783 25976 25979 28
20784 25976 25980 28
20785 25981 25982 28
20786 25981 25983 28
20787 25981 25984 28
20788 25981 25985 28
20789 25986 25987 28
20790 25986 25988 28
20791 25986 25989 28
20792 25986 25990 28
20793 25991 25992 28
20794 25991 25993 28
20795 25991 25994 28
20796 25991 25995 28
20797 25996 25997 28
20798 25996 25998 28
20799 25996 25999 28
20800 25996 26000 28
20801 26001 26002 28
20802 26001 26003 28
20803 26001 26004 28
20804 26001 26005 28
20805 26006 26007 28
20806 26006 26008 28
20807 26006 26009 28
20808 26006 26010 28
20809 26011 26012 28
20810 26011 26013 28
20811 26011 26014 28
20812 26011 26015 28
20813 26016 26017 28
20814 26016 26018 28
20815 26016 26019 28
20816 26016 26020 28
20817 26021 26022 28
20818 26021 26023 28
20819 26021 26024 28
20820 26021 26025 28
20821 26026 26027 28
20822 26026 26028 28
20823 26026 26029 28
20824 26026 26030 28
20825 26031 26032 28
20826 26031 26033 28
20827 26031 26034 28
20828 26031 26035 28
20829 26036 26037 28
20830 26036 26038 28
20831 26036 26039 28
20832 26036 26040 28
20833 26041 26042 28
20834 26041 26043 28
20835 26041 26044 28
20836 26041 26045 28
20837 26046 26047 28
20838 26046 26048 28
20839 26046 26049 28
20840 26046 26050 28
20841 26051 26052 28
20842 26051 26053 28
20843 26051 26054 28
20844 26051 26055 28
20845 26056 26057 28
20846 26056 26058 28
20847 26056 26059 28
20848 26056 26060 28
20849 26061 26062 28
20850 26061 26063 28
20851 26061 26064 28
20852 26061 26065 28
20853 26066 26067 28
20854 26066 26068 28
20855 26066 26069 28
20856 26066 26070 28
20857 26071 26072 28
20858 26071 26073 28
20859 26071 26074 28
20860 26071 26075 28
20861 26076 26077 28
20862 26076 26078 28
20863 26076 26079 28
20864 26076 26080 28
20865 26081 26082 28
20866 26081 26083 28
20867 26081 26084 28
20868 26081 26085 28
20869 26086 26087 28
20870 26086 26088 28
20871 26086 26089 28
20872 26086 26090 28
20873 26091 26092 28
20874 26091 26093 28
20875 26091 26094 28
20876 26091 26095 28
20877 26096 26097 28
20878 26096 26098 28
20879 26096 26099 28
20880 26096 26100 28
20881 26101 26102 28
20882 26101 26103 28
20883 26101 26104 28
20884 26101 26105 28
20885 26106 26107 28
20886 26106 26108 28
20887 26106 26109 28
20888 26106 26110 28
20889 26111 26112 28
20890 26111 26113 28
20891 26111 26114 28
20892 26111 26115 28
20893 26116 26117 28
20894 26116 26118 28
20895 26116 26119 28
20896 26116 26120 28
20897 26121 26122 28
20898 26121 26123 28
20899 26121 26124 28
20900 26121 26125 28
20901 26126 26127 28
20902 26126 26128 28
20903 26126 26129 28
20904 26126 26130 28
20905 26131 26132 28
20906 26131 26133 28
20907 26131 26134 28
20908 26131 26135 28
20909 26136 26137 28
20910 26136 26138 28
20911 26136 26139 28
20912 26136 26140 28
20913 26141 26142 28
20914 26141 26143 28
20915 26141 26144 28
20916 26141 26145 28
20917 26146 26147 28
20918 26146 26148 28
20919 26146 26149 28
20920 26146 26150 28
20921 26151 26152 28
20922 26151 26153 28
20923 26151 26154 28
20924 26151 26155 28
20925 26156 26157 28
20926 26156 26158 28
20927 26156 26159 28
20928 26156 26160 28
20929 26161 26162 28
20930 26161 26163 28
20931 26161 26164 28
20932 26161 26165 28
20933 26166 26167 28
20934 26166 26168 28
20935 26166 26169 28
20936 26166 26170 28
20937 26171 26172 28
20938 26171 26173 28
20939 26171 26174 28
20940 26171 26175 28
20941 26176 26177 28
20942 26176 26178 28
20943 26176 26179 28
20944 26176 26180 28
20945 26181 26182 28
20946 26181 26183 28
20947 26181 26184 28
20948 26181 26185 28
20949 26186 26187 28
20950 26186 26188 28
20951 26186 26189 28
20952 26186 26190 28
20953 26191 26192 28
20954 26191 26193 28
20955 26191 26194 28
20956 26191 26195 28
20957 26196 26197 28
20958 26196 26198 28
20959 26196 26199 28
20960 26196 26200 28
20961 26201 26202 28
20962 26201 26203 28
20963 26201 26204 28
20964 26201 26205 28
20965 26206 26207 28
20966 26206 26208 28
20967 26206 26209 28
20968 26206 26210 28
20969 26211 26212 28
20970 26211 26213 28
20971 26211 26214 28
20972 26211 26215 28
20973 26216 26217 28
20974 26216 26218 28
20975 26216 26219 28
20976 26216 26220 28
20977 26221 26222 28
20978 26221 26223 28
20979 26221 26224 28
20980 26221 26225 28
20981 26226 26227 28
20982 26226 26228 28
20983 26226 26229 28
20984 26226 26230 28
20985 26231 26232 28
20986 26231 26233 28
20987 26231 26234 28
20988 26231 26235 28
20989 26236 26237 28
20990 26236 26238 28
20991 26236 26239 28
20992 26236 26240 28
20993 26241 26242 28
20994 26241 26243 28
20995 26241 26244 28
20996 26241 26245 28
20997 26246 26247 28
20998 26246 26248 28
20999 26246 26249 28
21000 26246 26250 28
21001 26251 26252 28
21002 26251 26253 28
21003 26251 26254 28
21004 26251 26255 28
21005 26256 26257 28
21006 26256 26258 28
21007 26256 26259 28
21008 26256 26260 28
21009 26261 26262 28
21010 26261 26263 28
21011 26261 26264 28
21012 26261 26265 28
21013 26266 26267 28
21014 26266 26268 28
21015 26266 26269 28
21016 26266 26270 28
21017 26271 26272 28
21018 26271 26273 28
21019 26271 26274 28
21020 26271 26275 28
21021 26276 26277 28
21022 26276 26278 28
21023 26276 26279 28
21024 26276 26280 28
21025 26281 26282 28
21026 26281 26283 28
21027 26281 26284 28
21028 26281 26285 28
21029 26286 26287 28
21030 26286 26288 28
21031 26286 26289 28
21032 26286 26290 28
21033 26291 26292 28
21034 26291 26293 28
21035 26291 26294 28
21036 26291 26295 28
21037 26296 26297 28
21038 26296 26298 28
21039 26296 26299 28
21040 26296 26300 28
21041 26301 26302 28
21042 26301 26303 28
21043 26301 26304 28
21044 26301 26305 28
21045 26306 26307 28
21046 26306 26308 28
21047 26306 26309 28
21048 26306 26310 28
21049 26311 26312 28
21050 26311 26313 28
21051 26311 26314 28
21052 26311 26315 28
21053 26316 26317 28
21054 26316 26318 28
21055 26316 26319 28
21056 26316 26320 28
21057 26321 26322 28
21058 26321 26323 28
21059 26321 26324 28
21060 26321 26325 28
21061 26326 26327 28
21062 26326 26328 28
21063 26326 26329 28
21064 26326 26330 28
21065 26331 26332 28
21066 26331 26333 28
21067 26331 26334 28
21068 26331 26335 28
21069 26336 26337 28
21070 26336 26338 28
21071 26336 26339 28
21072 26336 26340 28
21073 26341 26342 28
21074 26341 26343 28
21075 26341 26344 28
21076 26341 26345 28
21077 26346 26347 28
21078 26346 26348 28
21079 26346 26349 28
21080 26346 26350 28
21081 26351 26352 28
21082 26351 26353 28
21083 26351 26354 28
21084 26351 26355 28
21085 26356 26357 28
21086 26356 26358 28
21087 26356 26359 28
21088 26356 26360 28
21089 26361 26362 28
21090 26361 26363 28
21091 26361 26364 28
21092 26361 26365 28
21093 26366 26367 28
21094 26366 26368 28
21095 26366 26369 28
21096 26366 26370 28
21097 26371 26372 28
21098 26371 26373 28
21099 26371 26374 28
21100 26371 26375 28
21101 26376 26377 28
21102 26376 26378 28
21103 26376 26379 28
21104 26376 26380 28
21105 26381 26382 28
21106 26381 26383 28
21107 26381 26384 28
21108 26381 26385 28
21109 26386 26387 28
21110 26386 26388 28
21111 26386 26389 28
21112 26386 26390 28
21113 26391 26392 28
21114 26391 26393 28
21115 26391 26394 28
21116 26391 26395 28
21117 26396 26397 28
21118 26396 26398 28
21119 26396 26399 28
21120 26396 26400 28
21121 26401 26402 28
21122 26401 26403 28
21123 26401 26404 28
21124 26401 26405 28
21125 26406 26407 28
21126 26406 26408 28
21127 26406 26409 28
21128 26406 26410 28
21129 26411 26412 28
21130 26411 26413 28
21131 26411 26414 28
21132 26411 26415 28
21133 26416 26417 28
21134 26416 26418 28
21135 26416 26419 28
21136 26416 26420 28
21137 26421 26422 28
21138 26421 26423 28
21139 26421 26424 28
21140 26421 26425 28
21141 26426 26427 28
21142 26426 26428 28
21143 26426 26429 28
21144 26426 26430 28
21145 26431 26432 28
21146 26431 26433 28
21147 26431 26434 28
21148 26431 26435 28
21149 26436 26437 28
21150 26436 26438 28
21151 26436 26439 28
21152 26436 26440 28
21153 26441 26442 28
21154 26441 26443 28
21155 26441 26444 28
21156 26441 26445 28
21157 26446 26447 28
21158 26446 26448 28
21159 26446 26449 28
21160 26446 26450 28
21161 26451 26452 28
21162 26451 26453 28
21163 26451 26454 28
21164 26451 26455 28
21165 26456 26457 28
21166 26456 26458 28
21167 26456 26459 28
21168 26456 26460 28
21169 26461 26462 28
21170 26461 26463 28
21171 26461 26464 28
21172 26461 26465 28
21173 26466 26467 28
21174 26466 26468 28
21175 26466 26469 28
21176 26466 26470 28
21177 26471 26472 28
21178 26471 26473 28
21179 26471 26474 28
21180 26471 26475 28
21181 26476 26477 28
21182 26476 26478 28
21183 26476 26479 28
21184 26476 26480 28
21185 26481 26482 28
21186 26481 26483 28
21187 26481 26484 28
21188 26481 26485 28
21189 26486 26487 28
21190 26486 26488 28
21191 26486 26489 28
21192 26486 26490 28
21193 26491 26492 28
21194 26491 26493 28
21195 26491 26494 28
21196 26491 26495 28
21197 26496 26497 28
21198 26496 26498 28
21199 26496 26499 28
21200 26496 26500 28
21201 26501 26502 28
21202 26501 26503 28
21203 26501 26504 28
21204 26501 26505 28
21205 26506 26507 28
21206 26506 26508 28
21207 26506 26509 28
21208 26506 26510 28
21209 26511 26512 28
21210 26511 26513 28
21211 26511 26514 28
21212 26511 26515 28
21213 26516 26517 28
21214 26516 26518 28
21215 26516 26519 28
21216 26516 26520 28
21217 26521 26522 28
21218 26521 26523 28
21219 26521 26524 28
21220 26521 26525 28
21221 26526 26527 28
21222 26526 26528 28
21223 26526 26529 28
21224 26526 26530 28
21225 26531 26532 28
21226 26531 26533 28
21227 26531 26534 28
21228 26531 26535 28
21229 26536 26537 28
21230 26536 26538 28
21231 26536 26539 28
21232 26536 26540 28
21233 26541 26542 28
21234 26541 26543 28
21235 26541 26544 28
21236 26541 26545 28
21237 26546 26547 28
21238 26546 26548 28
21239 26546 26549 28
21240 26546 26550 28
21241 26551 26552 28
21242 26551 26553 28
21243 26551 26554 28
21244 26551 26555 28
21245 26556 26557 28
21246 26556 26558 28
21247 26556 26559 28
21248 26556 26560 28
21249 26561 26562 28
21250 26561 26563 28
21251 26561 26564 28
21252 26561 26565 28
21253 26566 26567 28
21254 26566 26568 28
21255 26566 26569 28
21256 26566 26570 28
21257 26571 26572 28
21258 26571 26573 28
21259 26571 26574 28
21260 26571 26575 28
21261 26576 26577 28
21262 26576 26578 28
21263 26576 26579 28
21264 26576 26580 28
21265 26581 26582 28
21266 26581 26583 28
21267 26581 26584 28
21268 26581 26585 28
21269 26586 26587 28
21270 26586 26588 28
21271 26586 26589 28
21272 26586 26590 28
21273 26591 26592 28
21274 26591 26593 28
21275 26591 26594 28
21276 26591 26595 28
21277 26596 26597 28
21278 26596 26598 28
21279 26596 26599 28
21280 26596 26600 28
21281 26601 26602 28
21282 26601 26603 28
21283 26601 26604 28
21284 26601 26605 28
21285 26606 26607 28
21286 26606 26608 28
21287 26606 26609 28
21288 26606 26610 28
21289 26611 26612 28
21290 26611 26613 28
21291 26611 26614 28
21292 26611 26615 28
21293 26616 26617 28
21294 26616 26618 28
21295 26616 26619 28
21296 26616 26620 28
21297 26621 26622 28
21298 26621 26623 28
21299 26621 26624 28
21300 26621 26625 28
21301 26626 26627 28
21302 26626 26628 28
21303 26626 26629 28
21304 26626 26630 28
21305 26631 26632 28
21306 26631 26633 28
21307 26631 26634 28
21308 26631 26635 28
21309 26636 26637 28
21310 26636 26638 28
21311 26636 26639 28
21312 26636 26640 28
21313 26641 26642 28
21314 26641 26643 28
21315 26641 26644 28
21316 26641 26645 28
21317 26646 26647 28
21318 26646 26648 28
21319 26646 26649 28
21320 26646 26650 28
21321 26651 26652 28
21322 26651 26653 28
21323 26651 26654 28
21324 26651 26655 28
21325 26656 26657 28
21326 26656 26658 28
21327 26656 26659 28
21328 26656 26660 28
21329 26661 26662 28
21330 26661 26663 28
21331 26661 26664 28
21332 26661 26665 28
21333 26666 26667 28
21334 26666 26668 28
21335 26666 26669 28
21336 26666 26670 28
21337 26671 26672 28
21338 26671 26673 28
21339 26671 26674 28
21340 26671 26675 28
21341 26676 26677 28
21342 26676 26678 28
21343 26676 26679 28
21344 26676 26680 28
21345 26681 26682 28
21346 26681 26683 28
21347 26681 26684 28
21348 26681 26685 28
21349 26686 26687 28
21350 26686 26688 28
21351 26686 26689 28
21352 26686 26690 28
21353 26691 26692 28
21354 26691 26693 28
21355 26691 26694 28
21356 26691 26695 28
21357 26696 26697 28
21358 26696 26698 28
21359 26696 26699 28
21360 26696 26700 28
21361 26701 26702 28
21362 26701 26703 28
21363 26701 26704 28
21364 26701 26705 28
21365 26706 26707 28
21366 26706 26708 28
21367 26706 26709 28
21368 26706 26710 28
21369 26711 26712 28
21370 26711 26713 28
21371 26711 26714 28
21372 26711 26715 28
21373 26716 26717 28
21374 26716 26718 28
21375 26716 26719 28
21376 26716 26720 28
21377 26721 26722 28
21378 26721 26723 28
21379 26721 26724 28
21380 26721 26725 28
21381 26726 26727 28
21382 26726 26728 28
21383 26726 26729 28
21384 26726 26730 28
21385 26731 26732 28
21386 26731 26733 28
21387 26731 26734 28
21388 26731 26735 28
21389 26736 26737 28
21390 26736 26738 28
21391 26736 26739 28
21392 26736 26740 28
21393 26741 26742 28
21394 26741 26743 28
21395 26741 26744 28
21396 26741 26745 28
21397 26746 26747 28
21398 26746 26748 28
21399 26746 26749 28
21400 26746 26750 28
21401 26751 26752 28
21402 26751 26753 28
21403 26751 26754 28
21404 26751 26755 28
21405 26756 26757 28
21406 26756 26758 28
21407 26756 26759 28
21408 26756 26760 28
21409 26761 26762 28
21410 26761 26763 28
21411 26761 26764 28
21412 26761 26765 28
21413 26766 26767 28
21414 26766 26768 28
21415 26766 26769 28
21416 26766 26770 28
21417 26771 26772 28
21418 26771 26773 28
21419 26771 26774 28
21420 26771 26775 28
21421 26776 26777 28
21422 26776 26778 28
21423 26776 26779 28
21424 26776 26780 28
21425 26781 26782 28
21426 26781 26783 28
21427 26781 26784 28
21428 26781 26785 28
21429 26786 26787 28
21430 26786 26788 28
21431 26786 26789 28
21432 26786 26790 28
21433 26791 26792 28
21434 26791 26793 28
21435 26791 26794 28
21436 26791 26795 28
21437 26796 26797 28
21438 26796 26798 28
21439 26796 26799 28
21440 26796 26800 28
21441 26801 26802 28
21442 26801 26803 28
21443 26801 26804 28
21444 26801 26805 28
21445 26806 26807 28
21446 26806 26808 28
21447 26806 26809 28
21448 26806 26810 28
21449 26811 26812 28
21450 26811 26813 28
21451 26811 26814 28
21452 26811 26815 28
21453 26816 26817 28
21454 26816 26818 28
21455 26816 26819 28
21456 26816 26820 28
21457 26821 26822 28
21458 26821 26823 28
21459 26821 26824 28
21460 26821 26825 28
21461 26826 26827 28
21462 26826 26828 28
21463 26826 26829 28
21464 26826 26830 28
21465 26831 26832 28
21466 26831 26833 28
21467 26831 26834 28
21468 26831 26835 28
21469 26836 26837 28
21470 26836 26838 28
21471 26836 26839 28
21472 26836 26840 28
21473 26841 26842 28
21474 26841 26843 28
21475 26841 26844 28
21476 26841 26845 28
21477 26846 26847 28
21478 26846 26848 28
21479 26846 26849 28
21480 26846 26850 28
21481 26851 26852 28
21482 26851 26853 28
21483 26851 26854 28
21484 26851 26855 28
21485 26856 26857 28
21486 26856 26858 28
21487 26856 26859 28
21488 26856 26860 28
21489 26861 26862 28
21490 26861 26863 28
21491 26861 26864 28
21492 26861 26865 28
21493 26866 26867 28
21494 26866 26868 28
21495 26866 26869 28
21496 26866 26870 28
21497 26871 26872 28
21498 26871 26873 28
21499 26871 26874 28
21500 26871 26875 28
21501 26876 26877 28
21502 26876 26878 28
21503 26876 26879 28
21504 26876 26880 28
21505 26881 26882 28
21506 26881 26883 28
21507 26881 26884 28
21508 26881 26885 28
21509 26886 26887 28
21510 26886 26888 28
21511 26886 26889 28
21512 26886 26890 28
21513 26891 26892 28
21514 26891 26893 28
21515 26891 26894 28
21516 26891 26895 28
21517 26896 26897 28
21518 26896 26898 28
21519 26896 26899 28
21520 26896 26900 28
21521 26901 26902 28
21522 26901 26903 28
21523 26901 26904 28
21524 26901 26905 28
21525 26906 26907 28
21526 26906 26908 28
21527 26906 26909 28
21528 26906 26910 28
21529 26911 26912 28
21530 26911 26913 28
21531 26911 26914 28
21532 26911 26915 28
21533 26916 26917 28
21534 26916 26918 28
21535 26916 26919 28
21536 26916 26920 28
21537 26921 26922 28
21538 26921 26923 28
21539 26921 26924 28
21540 26921 26925 28
21541 26926 26927 28
21542 26926 26928 28
21543 26926 26929 28
21544 26926 26930 28
21545 26931 26932 28
21546 26931 26933 28
21547 26931 26934 28
21548 26931 26935 28
21549 26936 26937 28
21550 26936 26938 28
21551 26936 26939 28
21552 26936 26940 28
21553 26941 26942 28
21554 26941 26943 28
21555 26941 26944 28
21556 26941 26945 28
21557 26946 26947 28
21558 26946 26948 28
21559 26946 26949 28
21560 26946 26950 28
21561 26951 26952 28
21562 26951 26953 28
21563 26951 26954 28
21564 26951 26955 28
21565 26956 26957 28
21566 26956 26958 28
21567 26956 26959 28
21568 26956 26960 28
21569 26961 26962 28
21570 26961 26963 28
21571 26961 26964 28
21572 26961 26965 28
21573 26966 26967 28
21574 26966 26968 28
21575 26966 26969 28
21576 26966 26970 28
21577 26971 26972 28
21578 26971 26973 28
21579 26971 26974 28
21580 26971 26975 28
21581 26976 26977 28
21582 26976 26978 28
21583 26976 26979 28
21584 26976 26980 28
21585 26981 26982 28
21586 26981 26983 28
21587 26981 26984 28
21588 26981 26985 28
21589 26986 26987 28
21590 26986 26988 28
21591 26986 26989 28
21592 26986 26990 28
21593 26991 26992 28
21594 26991 26993 28
21595 26991 26994 28
21596 26991 26995 28
21597 26996 26997 28
21598 26996 26998 28
21599 26996 26999 28
21600 26996 27000 28
21601 27001 27002 28
21602 27001 27003 28
21603 27001 27004 28
21604 27001 27005 28
21605 27006 27007 28
21606 27006 27008 28
21607 27006 27009 28
21608 27006 27010 28
21609 27011 27012 28
21610 27011 27013 28
21611 27011 27014 28
21612 27011 27015 28
21613 27016 27017 28
21614 27016 27018 28
21615 27016 27019 28
21616 27016 27020 28
21617 27021 27022 28
21618 27021 27023 28
21619 27021 27024 28
21620 27021 27025 28
21621 27026 27027 28
21622 27026 27028 28
21623 27026 27029 28
21624 27026 27030 28
21625 27031 27032 28
21626 27031 27033 28
21627 27031 27034 28
21628 27031 27035 28
21629 27036 27037 28
21630 27036 27038 28
21631 27036 27039 28
21632 27036 27040 28
21633 27041 27042 28
21634 27041 27043 28
21635 27041 27044 28
21636 27041 27045 28
21637 27046 27047 28
21638 27046 27048 28
21639 27046 27049 28
21640 27046 27050 28
21641 27051 27052 28
21642 27051 27053 28
21643 27051 27054 28
21644 27051 27055 28
21645 27056 27057 28
21646 27056 27058 28
21647 27056 27059 28
21648 27056 27060 28
21649 27061 27062 28
21650 27061 27063 28
21651 27061 27064 28
21652 27061 27065 28
21653 27066 27067 28
21654 27066 27068 28
21655 27066 27069 28
21656 27066 27070 28
21657 27071 27072 28
21658 27071 27073 28
21659 27071 27074 28
21660 27071 27075 28
21661 27076 27077 28
21662 27076 27078 28
21663 27076 27079 28
21664 27076 27080 28
21665 27081 27082 28
21666 27081 27083 28
21667 27081 27084 28
21668 27081 27085 28
21669 27086 27087 28
21670 27086 27088 28
21671 27086 27089 28
21672 27086 27090 28
21673 27091 27092 28
21674 27091 27093 28
21675 27091 27094 28
21676 27091 27095 28
21677 27096 27097 28
21678 27096 27098 28
21679 27096 27099 28
21680 27096 27100 28
21681 27101 27102 28
21682 27101 27103 28
21683 27101 27104 28
21684 27101 27105 28
21685 27106 27107 28
21686 27106 27108 28
21687 27106 27109 28
21688 27106 27110 28
21689 27111 27112 28
21690 27111 27113 28
21691 27111 27114 28
21692 27111 27115 28
21693 27116 27117 28
21694 27116 27118 28
21695 27116 27119 28
21696 27116 27120 28
21697 27121 27122 28
21698 27121 27123 28
21699 27121 27124 28
21700 27121 27125 28
21701 27126 27127 28
21702 27126 27128 28
21703 27126 27129 28
21704 27126 27130 28
21705 27131 27132 28
21706 27131 27133 28
21707 27131 27134 28
21708 27131 27135 28
21709 27136 27137 28
21710 27136 27138 28
21711 27136 27139 28
21712 27136 27140 28
21713 27141 27142 28
21714 27141 27143 28
21715 27141 27144 28
21716 27141 27145 28
21717 27146 27147 28
21718 27146 27148 28
21719 27146 27149 28
21720 27146 27150 28
21721 27151 27152 28
21722 27151 27153 28
21723 27151 27154 28
21724 27151 27155 28
21725 27156 27157 28
21726 27156 27158 28
21727 27156 27159 28
21728 27156 27160 28
21729 27161 27162 28
21730 27161 27163 28
21731 27161 27164 28
21732 27161 27165 28
21733 27166 27167 28
21734 27166 27168 28
21735 27166 27169 28
21736 27166 27170 28
21737 27171 27172 28
21738 27171 27173 28
21739 27171 27174 28
21740 27171 27175 28
21741 27176 27177 28
21742 27176 27178 28
21743 27176 27179 28
21744 27176 27180 28
21745 27181 27182 28
21746 27181 27183 28
21747 27181 27184 28
21748 27181 27185 28
21749 27186 27187 28
21750 27186 27188 28
21751 27186 27189 28
21752 27186 27190 28
21753 27191 27192 28
21754 27191 27193 28
21755 27191 27194 28
21756 27191 27195 28
21757 27196 27197 28
21758 27196 27198 28
21759 27196 27199 28
21760 27196 27200 28
21761 27201 27202 28
21762 27201 27203 28
21763 27201 27204 28
21764 27201 27205 28
21765 27206 27207 28
21766 27206 27208 28
21767 27206 27209 28
21768 27206 27210 28
21769 27211 27212 28
21770 27211 27213 28
21771 27211 27214 28
21772 27211 27215 28
21773 27216 27217 28
21774 27216 27218 28
21775 27216 27219 28
21776 27216 27220 28
21777 27221 27222 28
21778 27221 27223 28
21779 27221 27224 28
21780 27221 27225 28
21781 27226 27227 28
21782 27226 27228 28
21783 27226 27229 28
21784 27226 27230 28
21785 27231 27232 28
21786 27231 27233 28
21787 27231 27234 28
21788 27231 27235 28
21789 27236 27237 28
21790 27236 27238 28
21791 27236 27239 28
21792 27236 27240 28
21793 27241 27242 28
21794 27241 27243 28
21795 27241 27244 28
21796 27241 27245 28
21797 27246 27247 28
21798 27246 27248 28
21799 27246 27249 28
21800 27246 27250 28
21801 27251 27252 28
21802 27251 27253 28
21803 27251 27254 28
21804 27251 27255 28
21805 27256 27257 28
21806 27256 27258 28
21807 27256 27259 28
21808 27256 27260 28
21809 27261 27262 28
21810 27261 27263 28
21811 27261 27264 28
21812 27261 27265 28
21813 27266 27267 28
21814 27266 27268 28
21815 27266 27269 28
21816 27266 27270 28
21817 27271 27272 28
21818 27271 27273 28
21819 27271 27274 28
21820 27271 27275 28
21821 27276 27277 28
21822 27276 27278 28
21823 27276 27279 28
21824 27276 27280 28
21825 27281 27282 28
21826 27281 27283 28
21827 27281 27284 28
21828 27281 27285 28
21829 27286 27287 28
21830 27286 27288 28
21831 27286 27289 28
21832 27286 27290 28
21833 27291 27292 28
21834 27291 27293 28
21835 27291 27294 28
21836 27291 27295 28
21837 27296 27297 28
21838 27296 27298 28
21839 27296 27299 28
21840 27296 27300 28
21841 27301 27302 28
21842 27301 27303 28
21843 27301 27304 28
21844 27301 27305 28
21845 27306 27307 28
21846 27306 27308 28
21847 27306 27309 28
21848 27306 27310 28
21849 27311 27312 28
21850 27311 27313 28
21851 27311 27314 28
21852 27311 27315 28
21853 27316 27317 28
21854 27316 27318 28
21855 27316 27319 28
21856 27316 27320 28
21857 27321 27322 28
21858 27321 27323 28
21859 27321 27324 28
21860 27321 27325 28
21861 27326 27327 28
21862 27326 27328 28
21863 27326 27329 28
21864 27326 27330 28
21865 27331 27332 28
21866 27331 27333 28
21867 27331 27334 28
21868 27331 27335 28
21869 27336 27337 28
21870 27336 27338 28
21871 27336 27339 28
21872 27336 27340 28
21873 27341 27342 28
21874 27341 27343 28
21875 27341 27344 28
21876 27341 27345 28
21877 27346 27347 28
21878 27346 27348 28
21879 27346 27349 28
21880 27346 27350 28
21881 27351 27352 28
21882 27351 27353 28
21883 27351 27354 28
21884 27351 27355 28
21885 27356 27357 28
21886 27356 27358 28
21887 27356 27359 28
21888 27356 27360 28
21889 27361 27362 28
21890 27361 27363 28
21891 27361 27364 28
21892 27361 27365 28
21893 27366 27367 28
21894 27366 27368 28
21895 27366 27369 28
21896 27366 27370 28
21897 27371 27372 28
21898 27371 27373 28
21899 27371 27374 28
21900 27371 27375 28
21901 27376 27377 28
21902 27376 27378 28
21903 27376 27379 28
21904 27376 27380 28
21905 27381 27382 28
21906 27381 27383 28
21907 27381 27384 28
21908 27381 27385 28
21909 27386 27387 28
21910 27386 27388 28
21911 27386 27389 28
21912 27386 27390 28
21913 27391 27392 28
21914 27391 27393 28
21915 27391 27394 28
21916 27391 27395 28
21917 27396 27397 28
21918 27396 27398 28
21919 27396 27399 28
21920 27396 27400 28
21921 27401 27402 28
21922 27401 27403 28
21923 27401 27404 28
21924 27401 27405 28
21925 27406 27407 28
21926 27406 27408 28
21927 27406 27409 28
21928 27406 27410 28
21929 27411 27412 28
21930 27411 27413 28
21931 27411 27414 28
21932 27411 27415 28
21933 27416 27417 28
21934 27416 27418 28
21935 27416 27419 28
21936 27416 27420 28
21937 27421 27422 28
21938 27421 27423 28
21939 27421 27424 28
21940 27421 27425 28
21941 27426 27427 28
21942 27426 27428 28
21943 27426 27429 28
21944 27426 27430 28
21945 27431 27432 28
21946 27431 27433 28
21947 27431 27434 28
21948 27431 27435 28
21949 27436 27437 28
21950 27436 27438 28
21951 27436 27439 28
21952 27436 27440 28
21953 27441 27442 28
21954 27441 27443 28
21955 27441 27444 28
21956 27441 27445 28
21957 27446 27447 28
21958 27446 27448 28
21959 27446 27449 28
21960 27446 27450 28
21961 27451 27452 28
21962 27451 27453 28
21963 27451 27454 28
21964 27451 27455 28
21965 27456 27457 28
21966 27456 27458 28
21967 27456 27459 28
21968 27456 27460 28
21969 27461 27462 28
21970 27461 27463 28
21971 27461 27464 28
21972 27461 27465 28
21973 27466 27467 28
21974 27466 27468 28
21975 27466 27469 28
21976 27466 27470 28
21977 27471 27472 28
21978 27471 27473 28
21979 27471 27474 28
21980 27471 27475 28
21981 27476 27477 28
21982 27476 27478 28
21983 27476 27479 28
21984 27476 27480 28
21985 27481 27482 28
21986 27481 27483 28
21987 27481 27484 28
21988 27481 27485 28
21989 27486 27487 28
21990 27486 27488 28
21991 27486 27489 28
21992 27486 27490 28
21993 27491 27492 28
21994 27491 27493 28
21995 27491 27494 28
21996 27491 27495 28
21997 27496 27497 28
21998 27496 27498 28
21999 27496 27499 28
22000 27496 27500 28
22001 27501 27502 28
22002 27501 27503 28
22003 27501 27504 28
22004 27501 27505 28
22005 27506 27507 28
22006 27506 27508 28
22007 27506 27509 28
22008 27506 27510 28
22009 27511 27512 28
22010 27511 27513 28
22011 27511 27514 28
22012 27511 27515 28
22013 27516 27517 28
22014 27516 27518 28
22015 27516 27519 28
22016 27516 27520 28
22017 27521 27522 28
22018 27521 27523 28
22019 27521 27524 28
22020 27521 27525 28
22021 27526 27527 28
22022 27526 27528 28
22023 27526 27529 28
22024 27526 27530 28
22025 27531 27532 28
22026 27531 27533 28
22027 27531 27534 28
22028 27531 27535 28
22029 27536 27537 28
22030 27536 27538 28
22031 27536 27539 28
22032 27536 27540 28
22033 27541 27542 28
22034 27541 27543 28
22035 27541 27544 28
22036 27541 27545 28
22037 27546 27547 28
22038 27546 27548 28
22039 27546 27549 28
22040 27546 27550 28
22041 27551 27552 28
22042 27551 27553 28
22043 27551 27554 28
22044 27551 27555 28
22045 27556 27557 28
22046 27556 27558 28
22047 27556 27559 28
22048 27556 27560 28
22049 27561 27562 28
22050 27561 27563 28
22051 27561 27564 28
22052 27561 27565 28
22053 27566 27567 28
22054 27566 27568 28
22055 27566 27569 28
22056 27566 27570 28
22057 27571 27572 28
22058 27571 27573 28
22059 27571 27574 28
22060 27571 27575 28
22061 27576 27577 28
22062 27576 27578 28
22063 27576 27579 28
22064 27576 27580 28
22065 27581 27582 28
22066 27581 27583 28
22067 27581 27584 28
22068 27581 27585 28
22069 27586 27587 28
22070 27586 27588 28
22071 27586 27589 28
22072 27586 27590 28
22073 27591 27592 28
22074 27591 27593 28
22075 27591 27594 28
22076 27591 27595 28
22077 27596 27597 28
22078 27596 27598 28
22079 27596 27599 28
22080 27596 27600 28
22081 27601 27602 28
22082 27601 27603 28
22083 27601 27604 28
22084 27601 27605 28
22085 27606 27607 28
22086 27606 27608 28
22087 27606 27609 28
22088 27606 27610 28
22089 27611 27612 28
22090 27611 27613 28
22091 27611 27614 28
22092 27611 27615 28
22093 27616 27617 28
22094 27616 27618 28
22095 27616 27619 28
22096 27616 27620 28
22097 27621 27622 28
22098 27621 27623 28
22099 27621 27624 28
22100 27621 27625 28
22101 27626 27627 28
22102 27626 27628 28
22103 27626 27629 28
22104 27626 27630 28
22105 27631 27632 28
22106 27631 27633 28
22107 27631 27634 28
22108 27631 27635 28
22109 27636 27637 28
22110 27636 27638 28
22111 27636 27639 28
22112 27636 27640 28
22113 27641 27642 28
22114 27641 27643 28
22115 27641 27644 28
22116 27641 27645 28
22117 27646 27647 28
22118 27646 27648 28
22119 27646 27649 28
22120 27646 27650 28
22121 27651 27652 28
22122 27651 27653 28
22123 27651 27654 28
22124 27651 27655 28
22125 27656 27657 28
22126 27656 27658 28
22127 27656 27659 28
22128 27656 27660 28
22129 27661 27662 28
22130 27661 27663 28
22131 27661 27664 28
22132 27661 27665 28
22133 27666 27667 28
22134 27666 27668 28
22135 27666 27669 28
22136 27666 27670 28
22137 27671 27672 28
22138 27671 27673 28
22139 27671 27674 28
22140 27671 27675 28
22141 27676 27677 28
22142 27676 27678 28
22143 27676 27679 28
22144 27676 27680 28
22145 27681 27682 28
22146 27681 27683 28
22147 27681 27684 28
22148 27681 27685 28
22149 27686 27687 28
22150 27686 27688 28
22151 27686 27689 28
22152 27686 27690 28
22153 27691 27692 28
22154 27691 27693 28
22155 27691 27694 28
22156 27691 27695 28
22157 27696 27697 28
22158 27696 27698 28
22159 27696 27699 28
22160 27696 27700 28
22161 27701 27702 28
22162 27701 27703 28
22163 27701 27704 28
22164 27701 27705 28
22165 27706 27707 28
22166 27706 27708 28
22167 27706 27709 28
22168 27706 27710 28
22169 27711 27712 28
22170 27711 27713 28
22171 27711 27714 28
22172 27711 27715 28
22173 27716 27717 28
22174 27716 27718 28
22175 27716 27719 28
22176 27716 27720 28
22177 27721 27722 28
22178 27721 27723 28
22179 27721 27724 28
22180 27721 27725 28
22181 27726 27727 28
22182 27726 27728 28
22183 27726 27729 28
22184 27726 27730 28
22185 27731 27732 28
22186 27731 27733 28
22187 27731 27734 28
22188 27731 27735 28
22189 27736 27737 28
22190 27736 27738 28
22191 27736 27739 28
22192 27736 27740 28
22193 27741 27742 28
22194 27741 27743 28
22195 27741 27744 28
22196 27741 27745 28
22197 27746 27747 28
22198 27746 27748 28
22199 27746 27749 28
22200 27746 27750 28
22201 27751 27752 28
22202 27751 27753 28
22203 27751 27754 28
22204 27751 27755 28
22205 27756 27757 28
22206 27756 27758 28
22207 27756 27759 28
22208 27756 27760 28
22209 27761 27762 28
22210 27761 27763 28
22211 27761 27764 28
22212 27761 27765 28
22213 27766 27767 28
22214 27766 27768 28
22215 27766 27769 28
22216 27766 27770 28
22217 27771 27772 28
22218 27771 27773 28
22219 27771 27774 28
22220 27771 27775 28
22221 27776 27777 28
22222 27776 27778 28
22223 27776 27779 28
22224 27776 27780 28
22225 27781 27782 28
22226 27781 27783 28
22227 27781 27784 28
22228 27781 27785 28
22229 27786 27787 28
22230 27786 27788 28
22231 27786 27789 28
22232 27786 27790 28
22233 27791 27792 28
22234 27791 27793 28
22235 27791 27794 28
22236 27791 27795 28
22237 27796 27797 28
22238 27796 27798 28
22239 27796 27799 28
22240 27796 27800 28
22241 27801 27802 28
22242 27801 27803 28
22243 27801 27804 28
22244 27801 27805 28
22245 27806 27807 28
22246 27806 27808 28
22247 27806 27809 28
22248 27806 27810 28
22249 27811 27812 28
22250 27811 27813 28
22251 27811 27814 28
22252 27811 27815 28
22253 27816 27817 28
22254 27816 27818 28
22255 27816 27819 28
22256 27816 27820 28
22257 27821 27822 28
22258 27821 27823 28
22259 27821 27824 28
22260 27821 27825 28
22261 27826 27827 28
22262 27826 27828 28
22263 27826 27829 28
22264 27826 27830 28
22265 27831 27832 28
22266 27831 27833 28
22267 27831 27834 28
22268 27831 27835 28
22269 27836 27837 28
22270 27836 27838 28
22271 27836 27839 28
22272 27836 27840 28
22273 27841 27842 28
22274 27841 27843 28
22275 27841 27844 28
22276 27841 27845 28
22277 27846 27847 28
22278 27846 27848 28
22279 27846 27849 28
22280 27846 27850 28
22281 27851 27852 28
22282 27851 27853 28
22283 27851 27854 28
22284 27851 27855 28
22285 27856 27857 28
22286 27856 27858 28
22287 27856 27859 28
22288 27856 27860 28
22289 27861 27862 28
22290 27861 27863 28
22291 27861 27864 28
22292 27861 27865 28
22293 27866 27867 28
22294 27866 27868 28
22295 27866 27869 28
22296 27866 27870 28
22297 27871 27872 28
22298 27871 27873 28
22299 27871 27874 28
22300 27871 27875 28
22301 27876 27877 28
22302 27876 27878 28
22303 27876 27879 28
22304 27876 27880 28
22305 27881 27882 28
22306 27881 27883 28
22307 27881 27884 28
22308 27881 27885 28
22309 27886 27887 28
22310 27886 27888 28
22311 27886 27889 28
22312 27886 27890 28
22313 27891 27892 28
22314 27891 27893 28
22315 27891 27894 28
22316 27891 27895 28
22317 27896 27897 28
22318 27896 27898 28
22319 27896 27899 28
22320 27896 27900 28
22321 27901 27902 28
22322 27901 27903 28
22323 27901 27904 28
22324 27901 27905 28
22325 27906 27907 28
22326 27906 27908 28
22327 27906 27909 28
22328 27906 27910 28
22329 27911 27912 28
22330 27911 27913 28
22331 27911 27914 28
22332 27911 27915 28
22333 27916 27917 28
22334 27916 27918 28
22335 27916 27919 28
22336 27916 27920 28
22337 27921 27922 28
22338 27921 27923 28
22339 27921 27924 28
22340 27921 27925 28
22341 27926 27927 28
22342 27926 27928 28
22343 27926 27929 28
22344 27926 27930 28
22345 27931 27932 28
22346 27931 27933 28
22347 27931 27934 28
22348 27931 27935 28
22349 27936 27937 28
22350 27936 27938 28
22351 27936 27939 28
22352 27936 27940 28
22353 27941 27942 28
22354 27941 27943 28
22355 27941 27944 28
22356 27941 27945 28
22357 27946 27947 28
22358 27946 27948 28
22359 27946 27949 28
22360 27946 27950 28
22361 27951 27952 28
22362 27951 27953 28
22363 27951 27954 28
22364 27951 27955 28
22365 27956 27957 28
22366 27956 27958 28
22367 27956 27959 28
22368 27956 27960 28
22369 27961 27962 28
22370 27961 27963 28
22371 27961 27964 28
22372 27961 27965 28
22373 27966 27967 28
22374 27966 27968 28
22375 27966 27969 28
22376 27966 27970 28
22377 27971 27972 28
22378 27971 27973 28
22379 27971 27974 28
22380 27971 27975 28
22381 27976 27977 28
22382 27976 27978 28
22383 27976 27979 28
22384 27976 27980 28
22385 27981 27982 28
22386 27981 27983 28
22387 27981 27984 28
22388 27981 27985 28
22389 27986 27987 28
22390 27986 27988 28
22391 27986 27989 28
22392 27986 27990 28
22393 27991 27992 28
22394 27991 27993 28
22395 27991 27994 28
22396 27991 27995 28
22397 27996 27997 28
22398 27996 27998 28
22399 27996 27999 28
22400 27996 28000 28
22401 28001 28002 28
22402 28001 28003 28
22403 28001 28004 28
22404 28001 28005 28
22405 28006 28007 28
22406 28006 28008 28
22407 28006 28009 28
22408 28006 28010 28
22409 28011 28012 28
22410 28011 28013 28
22411 28011 28014 28
22412 28011 28015 28
22413 28016 28017 28
22414 28016 28018 28
22415 28016 28019 28
22416 28016 28020 28
22417 28021 28022 28
22418 28021 28023 28
22419 28021 28024 28
22420 28021 28025 28
22421 28026 28027 28
22422 28026 28028 28
22423 28026 28029 28
22424 28026 28030 28
22425 28031 28032 28
22426 28031 28033 28
22427 28031 28034 28
22428 28031 28035 28
22429 28036 28037 28
22430 28036 28038 28
22431 28036 28039 28
22432 28036 28040 28
22433 28041 28042 28
22434 28041 28043 28
22435 28041 28044 28
22436 28041 28045 28
22437 28046 28047 28
22438 28046 28048 28
22439 28046 28049 28
22440 28046 28050 28
22441 28051 28052 28
22442 28051 28053 28
22443 28051 28054 28
22444 28051 28055 28
22445 28056 28057 28
22446 28056 28058 28
22447 28056 28059 28
22448 28056 28060 28
22449 28061 28062 28
22450 28061 28063 28
22451 28061 28064 28
22452 28061 28065 28
22453 28066 28067 28
22454 28066 28068 28
22455 28066 28069 28
22456 28066 28070 28
22457 28071 28072 28
22458 28071 28073 28
22459 28071 28074 28
22460 28071 28075 28
22461 28076 28077 28
22462 28076 28078 28
22463 28076 28079 28
22464 28076 28080 28
22465 28081 28082 28
22466 28081 28083 28
22467 28081 28084 28
22468 28081 28085 28
22469 28086 28087 28
22470 28086 28088 28
22471 28086 28089 28
22472 28086 28090 28
22473 28091 28092 28
22474 28091 28093 28
22475 28091 28094 28
22476 28091 28095 28
22477 28096 28097 28
22478 28096 28098 28
22479 28096 28099 28
22480 28096 28100 28
22481 28101 28102 28
22482 28101 28103 28
22483 28101 28104 28
22484 28101 28105 28
22485 28106 28107 28
22486 28106 28108 28
22487 28106 28109 28
22488 28106 28110 28
22489 28111 28112 28
22490 28111 28113 28
22491 28111 28114 28
22492 28111 28115 28
22493 28116 28117 28
22494 28116 28118 28
22495 28116 28119 28
22496 28116 28120 28
22497 28121 28122 28
22498 28121 28123 28
22499 28121 28124 28
22500 28121 28125 28
22501 28126 28127 28
22502 28126 28128 28
22503 28126 28129 28
22504 28126 28130 28
22505 28131 28132 28
22506 28131 28133 28
22507 28131 28134 28
22508 28131 28135 28
22509 28136 28137 28
22510 28136 28138 28
22511 28136 28139 28
22512 28136 28140 28
22513 28141 28142 28
22514 28141 28143 28
22515 28141 28144 28
22516 28141 28145 28
22517 28146 28147 28
22518 28146 28148 28
22519 28146 28149 28
22520 28146 28150 28
22521 28151 28152 28
22522 28151 28153 28
22523 28151 28154 28
22524 28151 28155 28
22525 28156 28157 28
22526 28156 28158 28
22527 28156 28159 28
22528 28156 28160 28
22529 28161 28162 28
22530 28161 28163 28
22531 28161 28164 28
22532 28161 28165 28
22533 28166 28167 28
22534 28166 28168 28
22535 28166 28169 28
22536 28166 28170 28
22537 28171 28172 28
22538 28171 28173 28
22539 28171 28174 28
22540 28171 28175 28
22541 28176 28177 28
22542 28176 28178 28
22543 28176 28179 28
22544 28176 28180 28
22545 28181 28182 28
22546 28181 28183 28
22547 28181 28184 28
22548 28181 28185 28
22549 28186 28187 28
22550 28186 28188 28
22551 28186 28189 28
22552 28186 28190 28
22553 28191 28192 28
22554 28191 28193 28
22555 28191 28194 28
22556 28191 28195 28
22557 28196 28197 28
22558 28196 28198 28
22559 28196 28199 28
22560 28196 28200 28
22561 28201 28202 28
22562 28201 28203 28
22563 28201 28204 28
22564 28201 28205 28
22565 28206 28207 28
22566 28206 28208 28
22567 28206 28209 28
22568 28206 28210 28
22569 28211 28212 28
22570 28211 28213 28
22571 28211 28214 28
22572 28211 28215 28
22573 28216 28217 28
22574 28216 28218 28
22575 28216 28219 28
22576 28216 28220 28
22577 28221 28222 28
22578 28221 28223 28
22579 28221 28224 28
22580 28221 28225 28
22581 28226 28227 28
22582 28226 28228 28
22583 28226 28229 28
22584 28226 28230 28
22585 28231 28232 28
22586 28231 28233 28
22587 28231 28234 28
22588 28231 28235 28
22589 28236 28237 28
22590 28236 28238 28
22591 28236 28239 28
22592 28236 28240 28
22593 28241 28242 28
22594 28241 28243 28
22595 28241 28244 28
22596 28241 28245 28
22597 28246 28247 28
22598 28246 28248 28
22599 28246 28249 28
22600 28246 28250 28
22601 28251 28252 28
22602 28251 28253 28
22603 28251 28254 28
22604 28251 28255 28
22605 28256 28257 28
22606 28256 28258 28
22607 28256 28259 28
22608 28256 28260 28
22609 28261 28262 28
22610 28261 28263 28
22611 28261 28264 28
22612 28261 28265 28
22613 28266 28267 28
22614 28266 28268 28
22615 28266 28269 28
22616 28266 28270 28
22617 28271 28272 28
22618 28271 28273 28
22619 28271 28274 28
22620 28271 28275 28
22621 28276 28277 28
22622 28276 28278 28
22623 28276 28279 28
22624 28276 28280 28
22625 28281 28282 28
22626 28281 28283 28
22627 28281 28284 28
22628 28281 28285 28
22629 28286 28287 28
22630 28286 28288 28
22631 28286 28289 28
22632 28286 28290 28
22633 28291 28292 28
22634 28291 28293 28
22635 28291 28294 28
22636 28291 28295 28
22637 28296 28297 28
22638 28296 28298 28
22639 28296 28299 28
22640 28296 28300 28
22641 28301 28302 28
22642 28301 28303 28
22643 28301 28304 28
22644 28301 28305 28
22645 28306 28307 28
22646 28306 28308 28
22647 28306 28309 28
22648 28306 28310 28
22649 28311 28312 28
22650 28311 28313 28
22651 28311 28314 28
22652 28311 28315 28
22653 28316 28317 28
22654 28316 28318 28
22655 28316 28319 28
22656 28316 28320 28
22657 28321 28322 28
22658 28321 28323 28
22659 28321 28324 28
22660 28321 28325 28
22661 28326 28327 28
22662 28326 28328 28
22663 28326 28329 28
22664 28326 28330 28
22665 28331 28332 28
22666 28331 28333 28
22667 28331 28334 28
22668 28331 28335 28
22669 28336 28337 28
22670 28336 28338 28
22671 28336 28339 28
22672 28336 28340 28
22673 28341 28342 28
22674 28341 28343 28
22675 28341 28344 28
22676 28341 28345 28
22677 28346 28347 28
22678 28346 28348 28
22679 28346 28349 28
22680 28346 28350 28
22681 28351 28352 28
22682 28351 28353 28
22683 28351 28354 28
22684 28351 28355 28
22685 28356 28357 28
22686 28356 28358 28
22687 28356 28359 28
22688 28356 28360 28
22689 28361 28362 28
22690 28361 28363 28
22691 28361 28364 28
22692 28361 28365 28
22693 28366 28367 28
22694 28366 28368 28
22695 28366 28369 28
22696 28366 28370 28
22697 28371 28372 28
22698 28371 28373 28
22699 28371 28374 28
22700 28371 28375 28
22701 28376 28377 28
22702 28376 28378 28
22703 28376 28379 28
22704 28376 28380 28
22705 28381 28382 28
22706 28381 28383 28
22707 28381 28384 28
22708 28381 28385 28
22709 28386 28387 28
22710 28386 28388 28
22711 28386 28389 28
22712 28386 28390 28
22713 28391 28392 28
22714 28391 28393 28
22715 28391 28394 28
22716 28391 28395 28
22717 28396 28397 28
22718 28396 28398 28
22719 28396 28399 28
22720 28396 28400 28
22721 28401 28402 28
22722 28401 28403 28
22723 28401 28404 28
22724 28401 28405 28
22725 28406 28407 28
22726 28406 28408 28
22727 28406 28409 28
22728 28406 28410 28
22729 28411 28412 28
22730 28411 28413 28
22731 28411 28414 28
22732 28411 28415 28
22733 28416 28417 28
22734 28416 28418 28
22735 28416 28419 28
22736 28416 28420 28
22737 28421 28422 28
22738 28421 28423 28
22739 28421 28424 28
22740 28421 28425 28
22741 28426 28427 28
22742 28426 28428 28
22743 28426 28429 28
22744 28426 28430 28
22745 28431 28432 28
22746 28431 28433 28
22747 28431 28434 28
22748 28431 28435 28
22749 28436 28437 28
22750 28436 28438 28
22751 28436 28439 28
22752 28436 28440 28
22753 28441 28442 28
22754 28441 28443 28
22755 28441 28444 28
22756 28441 28445 28
22757 28446 28447 28
22758 28446 28448 28
22759 28446 28449 28
22760 28446 28450 28
22761 28451 28452 28
22762 28451 28453 28
22763 28451 28454 28
22764 28451 28455 28
22765 28456 28457 28
22766 28456 28458 28
22767 28456 28459 28
22768 28456 28460 28
22769 28461 28462 28
22770 28461 28463 28
22771 28461 28464 28
22772 28461 28465 28
22773 28466 28467 28
22774 28466 28468 28
22775 28466 28469 28
22776 28466 28470 28
22777 28471 28472 28
22778 28471 28473 28
22779 28471 28474 28
22780 28471 28475 28
22781 28476 28477 28
22782 28476 28478 28
22783 28476 28479 28
22784 28476 28480 28
22785 28481 28482 28
22786 28481 28483 28
22787 28481 28484 28
22788 28481 28485 28
22789 28486 28487 28
22790 28486 28488 28
22791 28486 28489 28
22792 28486 28490 28
22793 28491 28492 28
22794 28491 28493 28
22795 28491 28494 28
22796 28491 28495 28
22797 28496 28497 28
22798 28496 28498 28
22799 28496 28499 28
22800 28496 28500 28
22801 28501 28502 28
22802 28501 28503 28
22803 28501 28504 28
22804 28501 28505 28
22805 28506 28507 28
22806 28506 28508 28
22807 28506 28509 28
22808 28506 28510 28
22809 28511 28512 28
22810 28511 28513 28
22811 28511 28514 28
22812 28511 28515 28
22813 28516 28517 28
22814 28516 28518 28
22815 28516 28519 28
22816 28516 28520 28
22817 28521 28522 28
22818 28521 28523 28
22819 28521 28524 28
22820 28521 28525 28
22821 28526 28527 28
22822 28526 28528 28
22823 28526 28529 28
22824 28526 28530 28
22825 28531 28532 28
22826 28531 28533 28
22827 28531 28534 28
22828 28531 28535 28
22829 28536 28537 28
22830 28536 28538 28
22831 28536 28539 28
22832 28536 28540 28
22833 28541 28542 28
22834 28541 28543 28
22835 28541 28544 28
22836 28541 28545 28
22837 28546 28547 28
22838 28546 28548 28
22839 28546 28549 28
22840 28546 28550 28
22841 28551 28552 28
22842 28551 28553 28
22843 28551 28554 28
22844 28551 28555 28
22845 28556 28557 28
22846 28556 28558 28
22847 28556 28559 28
22848 28556 28560 28
22849 28561 28562 28
22850 28561 28563 28
22851 28561 28564 28
22852 28561 28565 28
22853 28566 28567 28
22854 28566 28568 28
22855 28566 28569 28
22856 28566 28570 28
22857 28571 28572 28
22858 28571 28573 28
22859 28571 28574 28
22860 28571 28575 28
22861 28576 28577 28
22862 28576 28578 28
22863 28576 28579 28
22864 28576 28580 28
22865 28581 28582 28
22866 28581 28583 28
22867 28581 28584 28
22868 28581 28585 28
22869 28586 28587 28
22870 28586 28588 28
22871 28586 28589 28
22872 28586 28590 28
22873 28591 28592 28
22874 28591 28593 28
22875 28591 28594 28
22876 28591 28595 28
22877 28596 28597 28
22878 28596 28598 28
22879 28596 28599 28
22880 28596 28600 28
22881 28601 28602 28
22882 28601 28603 28
22883 28601 28604 28
22884 28601 28605 28
22885 28606 28607 28
22886 28606 28608 28
22887 28606 28609 28
22888 28606 28610 28
22889 28611 28612 28
22890 28611 28613 28
22891 28611 28614 28
22892 28611 28615 28
22893 28616 28617 28
22894 28616 28618 28
22895 28616 28619 28
22896 28616 28620 28
22897 28621 28622 28
22898 28621 28623 28
22899 28621 28624 28
22900 28621 28625 28
22901 28626 28627 28
22902 28626 28628 28
22903 28626 28629 28
22904 28626 28630 28
22905 28631 28632 28
22906 28631 28633 28
22907 28631 28634 28
22908 28631 28635 28
22909 28636 28637 28
22910 28636 28638 28
22911 28636 28639 28
22912 28636 28640 28
22913 28641 28642 28
22914 28641 28643 28
22915 28641 28644 28
22916 28641 28645 28
22917 28646 28647 28
22918 28646 28648 28
22919 28646 28649 28
22920 28646 28650 28
22921 28651 28652 28
22922 28651 28653 28
22923 28651 28654 28
22924 28651 28655 28
22925 28656 28657 28
22926 28656 28658 28
22927 28656 28659 28
22928 28656 28660 28
22929 28661 28662 28
22930 28661 28663 28
22931 28661 28664 28
22932 28661 28665 28
22933 28666 28667 28
22934 28666 28668 28
22935 28666 28669 28
22936 28666 28670 28
22937 28671 28672 28
22938 28671 28673 28
22939 28671 28674 28
22940 28671 28675 28
22941 28676 28677 28
22942 28676 28678 28
22943 28676 28679 28
22944 28676 28680 28
22945 28681 28682 28
22946 28681 28683 28
22947 28681 28684 28
22948 28681 28685 28
22949 28686 28687 28
22950 28686 28688 28
22951 28686 28689 28
22952 28686 28690 28
22953 28691 28692 28
22954 28691 28693 28
22955 28691 28694 28
22956 28691 28695 28
22957 28696 28697 28
22958 28696 28698 28
22959 28696 28699 28
22960 28696 28700 28
22961 28701 28702 28
22962 28701 28703 28
22963 28701 28704 28
22964 28701 28705 28
22965 28706 28707 28
22966 28706 28708 28
22967 28706 28709 28
22968 28706 28710 28
22969 28711 28712 28
22970 28711 28713 28
22971 28711 28714 28
22972 28711 28715 28
22973 28716 28717 28
22974 28716 28718 28
22975 28716 28719 28
22976 28716 28720 28
22977 28721 28722 28
22978 28721 28723 28
22979 28721 28724 28
22980 28721 28725 28
22981 28726 28727 28
22982 28726 28728 28
22983 28726 28729 28
22984 28726 28730 28
22985 28731 28732 28
22986 28731 28733 28
22987 28731 28734 28
22988 28731 28735 28
22989 28736 28737 28
22990 28736 28738 28
22991 28736 28739 28
22992 28736 28740 28
22993 28741 28742 28
22994 28741 28743 28
22995 28741 28744 28
22996 28741 28745 28
22997 28746 28747 28
22998 28746 28748 28
22999 28746 28749 28
23000 28746 28750 28
23001 28751 28752 28
23002 28751 28753 28
23003 28751 28754 28
23004 28751 28755 28
23005 28756 28757 28
23006 28756 28758 28
23007 28756 28759 28
23008 28756 28760 28
23009 28761 28762 28
23010 28761 28763 28
23011 28761 28764 28
23012 28761 28765 28
23013 28766 28767 28
23014 28766 28768 28
23015 28766 28769 28
23016 28766 28770 28
23017 28771 28772 28
23018 28771 28773 28
23019 28771 28774 28
23020 28771 28775 28
23021 28776 28777 28
23022 28776 28778 28
23023 28776 28779 28
23024 28776 28780 28
23025 28781 28782 28
23026 28781 28783 28
23027 28781 28784 28
23028 28781 28785 28
23029 28786 28787 28
23030 28786 28788 28
23031 28786 28789 28
23032 28786 28790 28
23033 28791 28792 28
23034 28791 28793 28
23035 28791 28794 28
23036 28791 28795 28
23037 28796 28797 28
23038 28796 28798 28
23039 28796 28799 28
23040 28796 28800 28
23041 28801 28802 28
23042 28801 28803 28
23043 28801 28804 28
23044 28801 28805 28
23045 28806 28807 28
23046 28806 28808 28
23047 28806 28809 28
23048 28806 28810 28
23049 28811 28812 28
23050 28811 28813 28
23051 28811 28814 28
23052 28811 28815 28
23053 28816 28817 28
23054 28816 28818 28
23055 28816 28819 28
23056 28816 28820 28
23057 28821 28822 28
23058 28821 28823 28
23059 28821 28824 28
23060 28821 28825 28
23061 28826 28827 28
23062 28826 28828 28
23063 28826 28829 28
23064 28826 28830 28
23065 28831 28832 28
23066 28831 28833 28
23067 28831 28834 28
23068 28831 28835 28
23069 28836 28837 28
23070 28836 28838 28
23071 28836 28839 28
23072 28836 28840 28
23073 28841 28842 28
23074 28841 28843 28
23075 28841 28844 28
23076 28841 28845 28
23077 28846 28847 28
23078 28846 28848 28
23079 28846 28849 28
23080 28846 28850 28
23081 28851 28852 28
23082 28851 28853 28
23083 28851 28854 28
23084 28851 28855 28
23085 28856 28857 28
23086 28856 28858 28
23087 28856 28859 28
23088 28856 28860 28
23089 28861 28862 28
23090 28861 28863 28
23091 28861 28864 28
23092 28861 28865 28
23093 28866 28867 28
23094 28866 28868 28
23095 28866 28869 28
23096 28866 28870 28
23097 28871 28872 28
23098 28871 28873 28
23099 28871 28874 28
23100 28871 28875 28
23101 28876 28877 28
23102 28876 28878 28
23103 28876 28879 28
23104 28876 28880 28
23105 28881 28882 28
23106 28881 28883 28
23107 28881 28884 28
23108 28881 28885 28
23109 28886 28887 28
23110 28886 28888 28
23111 28886 28889 28
23112 28886 28890 28
23113 28891 28892 28
23114 28891 28893 28
23115 28891 28894 28
23116 28891 28895 28
23117 28896 28897 28
23118 28896 28898 28
23119 28896 28899 28
23120 28896 28900 28
23121 28901 28902 28
23122 28901 28903 28
23123 28901 28904 28
23124 28901 28905 28
23125 28906 28907 28
23126 28906 28908 28
23127 28906 28909 28
23128 28906 28910 28
23129 28911 28912 28
23130 28911 28913 28
23131 28911 28914 28
23132 28911 28915 28
23133 28916 28917 28
23134 28916 28918 28
23135 28916 28919 28
23136 28916 28920 28
23137 28921 28922 28
23138 28921 28923 28
23139 28921 28924 28
23140 28921 28925 28
23141 28926 28927 28
23142 28926 28928 28
23143 28926 28929 28
23144 28926 28930 28
23145 28931 28932 28
23146 28931 28933 28
23147 28931 28934 28
23148 28931 28935 28
23149 28936 28937 28
23150 28936 28938 28
23151 28936 28939 28
23152 28936 28940 28
23153 28941 28942 28
23154 28941 28943 28
23155 28941 28944 28
23156 28941 28945 28
23157 28946 28947 28
23158 28946 28948 28
23159 28946 28949 28
23160 28946 28950 28
23161 28951 28952 28
23162 28951 28953 28
23163 28951 28954 28
23164 28951 28955 28
23165 28956 28957 28
23166 28956 28958 28
23167 28956 28959 28
23168 28956 28960 28
23169 28961 28962 28
23170 28961 28963 28
23171 28961 28964 28
23172 28961 28965 28
23173 28966 28967 28
23174 28966 28968 28
23175 28966 28969 28
23176 28966 28970 28
23177 28971 28972 28
23178 28971 28973 28
23179 28971 28974 28
23180 28971 28975 28
23181 28976 28977 28
23182 28976 28978 28
23183 28976 28979 28
23184 28976 28980 28
23185 28981 28982 28
23186 28981 28983 28
23187 28981 28984 28
23188 28981 28985 28
23189 28986 28987 28
23190 28986 28988 28
23191 28986 28989 28
23192 28986 28990 28
23193 28991 28992 28
23194 28991 28993 28
23195 28991 28994 28
23196 28991 28995 28
23197 28996 28997 28
23198 28996 28998 28
23199 28996 28999 28
23200 28996 29000 28
23201 29001 29002 28
23202 29001 29003 28
23203 29001 29004 28
23204 29001 29005 28
23205 29006 29007 28
23206 29006 29008 28
23207 29006 29009 28
23208 29006 29010 28
23209 29011 29012 28
23210 29011 29013 28
23211 29011 29014 28
23212 29011 29015 28
23213 29016 29017 28
23214 29016 29018 28
23215 29016 29019 28
23216 29016 29020 28
23217 29021 29022 28
23218 29021 29023 28
23219 29021 29024 28
23220 29021 29025 28
23221 29026 29027 28
23222 29026 29028 28
23223 29026 29029 28
23224 29026 29030 28
23225 29031 29032 28
23226 29031 29033 28
23227 29031 29034 28
23228 29031 29035 28
23229 29036 29037 28
23230 29036 29038 28
23231 29036 29039 28
23232 29036 29040 28
23233 29041 29042 28
23234 29041 29043 28
23235 29041 29044 28
23236 29041 29045 28
23237 29046 29047 28
23238 29046 29048 28
23239 29046 29049 28
23240 29046 29050 28
23241 29051 29052 28
23242 29051 29053 28
23243 29051 29054 28
23244 29051 29055 28
23245 29056 29057 28
23246 29056 29058 28
23247 29056 29059 28
23248 29056 29060 28
23249 29061 29062 28
23250 29061 29063 28
23251 29061 29064 28
23252 29061 29065 28
23253 29066 29067 28
23254 29066 29068 28
23255 29066 29069 28
23256 29066 29070 28
23257 29071 29072 28
23258 29071 29073 28
23259 29071 29074 28
23260 29071 29075 28
23261 29076 29077 28
23262 29076 29078 28
23263 29076 29079 28
23264 29076 29080 28
23265 29081 29082 28
23266 29081 29083 28
23267 29081 29084 28
23268 29081 29085 28
23269 29086 29087 28
23270 29086 29088 28
23271 29086 29089 28
23272 29086 29090 28
23273 29091 29092 28
23274 29091 29093 28
23275 29091 29094 28
23276 29091 29095 28
23277 29096 29097 28
23278 29096 29098 28
23279 29096 29099 28
23280 29096 29100 28
23281 29101 29102 28
23282 29101 29103 28
23283 29101 29104 28
23284 29101 29105 28
23285 29106 29107 28
23286 29106 29108 28
23287 29106 29109 28
23288 29106 29110 28
23289 29111 29112 28
23290 29111 29113 28
23291 29111 29114 28
23292 29111 29115 28
23293 29116 29117 28
23294 29116 29118 28
23295 29116 29119 28
23296 29116 29120 28
23297 29121 29122 28
23298 29121 29123 28
23299 29121 29124 28
23300 29121 29125 28
23301 29126 29127 28
23302 29126 29128 28
23303 29126 29129 28
23304 29126 29130 28
23305 29131 29132 28
23306 29131 29133 28
23307 29131 29134 28
23308 29131 29135 28
23309 29136 29137 28
23310 29136 29138 28
23311 29136 29139 28
23312 29136 29140 28
23313 29141 29142 28
23314 29141 29143 28
23315 29141 29144 28
23316 29141 29145 28
23317 29146 29147 28
23318 29146 29148 28
23319 29146 29149 28
23320 29146 29150 28
23321 29151 29152 28
23322 29151 29153 28
23323 29151 29154 28
23324 29151 29155 28
23325 29156 29157 28
23326 29156 29158 28
23327 29156 29159 28
23328 29156 29160 28
23329 29161 29162 28
23330 29161 29163 28
23331 29161 29164 28
23332 29161 29165 28
23333 29166 29167 28
23334 29166 29168 28
23335 29166 29169 28
23336 29166 29170 28
23337 29171 29172 28
23338 29171 29173 28
23339 29171 29174 28
23340 29171 29175 28
23341 29176 29177 28
23342 29176 29178 28
23343 29176 29179 28
23344 29176 29180 28
23345 29181 29182 28
23346 29181 29183 28
23347 29181 29184 28
23348 29181 29185 28
23349 29186 29187 28
23350 29186 29188 28
23351 29186 29189 28
23352 29186 29190 28
23353 29191 29192 28
23354 29191 29193 28
23355 29191 29194 28
23356 29191 29195 28
23357 29196 29197 28
23358 29196 29198 28
23359 29196 29199 28
23360 29196 29200 28
23361 29201 29202 28
23362 29201 29203 28
23363 29201 29204 28
23364 29201 29205 28
23365 29206 29207 28
23366 29206 29208 28
23367 29206 29209 28
23368 29206 29210 28
23369 29211 29212 28
23370 29211 29213 28
23371 29211 29214 28
23372 29211 29215 28
23373 29216 29217 28
23374 29216 29218 28
23375 29216 29219 28
23376 29216 29220 28
23377 29221 29222 28
23378 29221 29223 28
23379 29221 29224 28
23380 29221 29225 28
23381 29226 29227 28
23382 29226 29228 28
23383 29226 29229 28
23384 29226 29230 28
23385 29231 29232 28
23386 29231 29233 28
23387 29231 29234 28
23388 29231 29235 28
23389 29236 29237 28
23390 29236 29238 28
23391 29236 29239 28
23392 29236 29240 28
23393 29241 29242 28
23394 29241 29243 28
23395 29241 29244 28
23396 29241 29245 28
23397 29246 29247 28
23398 29246 29248 28
23399 29246 29249 28
23400 29246 29250 28
23401 29251 29252 28
23402 29251 29253 28
23403 29251 29254 28
23404 29251 29255 28
23405 29256 29257 28
23406 29256 29258 28
23407 29256 29259 28
23408 29256 29260 28
23409 29261 29262 28
23410 29261 29263 28
23411 29261 29264 28
23412 29261 29265 28
23413 29266 29267 28
23414 29266 29268 28
23415 29266 29269 28
23416 29266 29270 28
23417 29271 29272 28
23418 29271 29273 28
23419 29271 29274 28
23420 29271 29275 28
23421 29276 29277 28
23422 29276 29278 28
23423 29276 29279 28
23424 29276 29280 28
23425 29281 29282 28
23426 29281 29283 28
23427 29281 29284 28
23428 29281 29285 28
23429 29286 29287 28
23430 29286 29288 28
23431 29286 29289 28
23432 29286 29290 28
23433 29291 29292 28
23434 29291 29293 28
23435 29291 29294 28
23436 29291 29295 28
23437 29296 29297 28
23438 29296 29298 28
23439 29296 29299 28
23440 29296 29300 28
23441 29301 29302 28
23442 29301 29303 28
23443 29301 29304 28
23444 29301 29305 28
23445 29306 29307 28
23446 29306 29308 28
23447 29306 29309 28
23448 29306 29310 28
23449 29311 29312 28
23450 29311 29313 28
23451 29311 29314 28
23452 29311 29315 28
23453 29316 29317 28
23454 29316 29318 28
23455 29316 29319 28
23456 29316 29320 28
23457 29321 29322 28
23458 29321 29323 28
23459 29321 29324 28
23460 29321 29325 28
23461 29326 29327 28
23462 29326 29328 28
23463 29326 29329 28
23464 29326 29330 28
23465 29331 29332 28
23466 29331 29333 28
23467 29331 29334 28
23468 29331 29335 28
23469 29336 29337 28
23470 29336 29338 28
23471 29336 29339 28
23472 29336 29340 28
23473 29341 29342 28
23474 29341 29343 28
23475 29341 29344 28
23476 29341 29345 28
23477 29346 29347 28
23478 29346 29348 28
23479 29346 29349 28
23480 29346 29350 28
23481 29351 29352 28
23482 29351 29353 28
23483 29351 29354 28
23484 29351 29355 28
23485 29356 29357 28
23486 29356 29358 28
23487 29356 29359 28
23488 29356 29360 28
23489 29361 29362 28
23490 29361 29363 28
23491 29361 29364 28
23492 29361 29365 28
23493 29366 29367 28
23494 29366 29368 28
23495 29366 29369 28
23496 29366 29370 28
23497 29371 29372 28
23498 29371 29373 28
23499 29371 29374 28
23500 29371 29375 28
23501 29376 29377 28
23502 29376 29378 28
23503 29376 29379 28
23504 29376 29380 28
23505 29381 29382 28
23506 29381 29383 28
23507 29381 29384 28
23508 29381 29385 28
23509 29386 29387 28
23510 29386 29388 28
23511 29386 29389 28
23512 29386 29390 28
23513 29391 29392 28
23514 29391 29393 28
23515 29391 29394 28
23516 29391 29395 28
23517 29396 29397 28
23518 29396 29398 28
23519 29396 29399 28
23520 29396 29400 28
23521 29401 29402 28
23522 29401 29403 28
23523 29401 29404 28
23524 29401 29405 28
23525 29406 29407 28
23526 29406 29408 28
23527 29406 29409 28
23528 29406 29410 28
23529 29411 29412 28
23530 29411 29413 28
23531 29411 29414 28
23532 29411 29415 28
23533 29416 29417 28
23534 29416 29418 28
23535 29416 29419 28
23536 29416 29420 28
23537 29421 29422 28
23538 29421 29423 28
23539 29421 29424 28
23540 29421 29425 28
23541 29426 29427 28
23542 29426 29428 28
23543 29426 29429 28
23544 29426 29430 28
23545 29431 29432 28
23546 29431 29433 28
23547 29431 29434 28
23548 29431 29435 28
23549 29436 29437 28
23550 29436 29438 28
23551 29436 29439 28
23552 29436 29440 28
23553 29441 29442 28
23554 29441 29443 28
23555 29441 29444 28
23556 29441 29445 28
23557 29446 29447 28
23558 29446 29448 28
23559 29446 29449 28
23560 29446 29450 28
23561 29451 29452 28
23562 29451 29453 28
23563 29451 29454 28
23564 29451 29455 28
23565 29456 29457 28
23566 29456 29458 28
23567 29456 29459 28
23568 29456 29460 28
23569 29461 29462 28
23570 29461 29463 28
23571 29461 29464 28
23572 29461 29465 28
23573 29466 29467 28
23574 29466 29468 28
23575 29466 29469 28
23576 29466 29470 28
23577 29471 29472 28
23578 29471 29473 28
23579 29471 29474 28
23580 29471 29475 28
23581 29476 29477 28
23582 29476 29478 28
23583 29476 29479 28
23584 29476 29480 28
23585 29481 29482 28
23586 29481 29483 28
23587 29481 29484 28
23588 29481 29485 28
23589 29486 29487 28
23590 29486 29488 28
23591 29486 29489 28
23592 29486 29490 28
23593 29491 29492 28
23594 29491 29493 28
23595 29491 29494 28
23596 29491 29495 28
23597 29496 29497 28
23598 29496 29498 28
23599 29496 29499 28
23600 29496 29500 28
23601 29501 29502 28
23602 29501 29503 28
23603 29501 29504 28
23604 29501 29505 28
23605 29506 29507 28
23606 29506 29508 28
23607 29506 29509 28
23608 29506 29510 28
23609 29511 29512 28
23610 29511 29513 28
23611 29511 29514 28
23612 29511 29515 28
23613 29516 29517 28
23614 29516 29518 28
23615 29516 29519 28
23616 29516 29520 28
23617 29521 29522 28
23618 29521 29523 28
23619 29521 29524 28
23620 29521 29525 28
23621 29526 29527 28
23622 29526 29528 28
23623 29526 29529 28
23624 29526 29530 28
23625 29531 29532 28
23626 29531 29533 28
23627 29531 29534 28
23628 29531 29535 28
23629 29536 29537 28
23630 29536 29538 28
23631 29536 29539 28
23632 29536 29540 28
23633 29541 29542 28
23634 29541 29543 28
23635 29541 29544 28
23636 29541 29545 28
23637 29546 29547 28
23638 29546 29548 28
23639 29546 29549 28
23640 29546 29550 28
23641 29551 29552 28
23642 29551 29553 28
23643 29551 29554 28
23644 29551 29555 28
23645 29556 29557 28
23646 29556 29558 28
23647 29556 29559 28
23648 29556 29560 28
23649 29561 29562 28
23650 29561 29563 28
23651 29561 29564 28
23652 29561 29565 28
23653 29566 29567 28
23654 29566 29568 28
23655 29566 29569 28
23656 29566 29570 28
23657 29571 29572 28
23658 29571 29573 28
23659 29571 29574 28
23660 29571 29575 28
23661 29576 29577 28
23662 29576 29578 28
23663 29576 29579 28
23664 29576 29580 28
23665 29581 29582 28
23666 29581 29583 28
23667 29581 29584 28
23668 29581 29585 28
23669 29586 29587 28
23670 29586 29588 28
23671 29586 29589 28
23672 29586 29590 28
23673 29591 29592 28
23674 29591 29593 28
23675 29591 29594 28
23676 29591 29595 28
23677 29596 29597 28
23678 29596 29598 28
23679 29596 29599 28
23680 29596 29600 28
23681 29601 29602 28
23682 29601 29603 28
23683 29601 29604 28
23684 29601 29605 28
23685 29606 29607 28
23686 29606 29608 28
23687 29606 29609 28
23688 29606 29610 28
23689 29611 29612 28
23690 29611 29613 28
23691 29611 29614 28
23692 29611 29615 28
23693 29616 29617 28
23694 29616 29618 28
23695 29616 29619 28
23696 29616 29620 28
23697 29621 29622 28
23698 29621 29623 28
23699 29621 29624 28
23700 29621 29625 28
23701 29626 29627 28
23702 29626 29628 28
23703 29626 29629 28
23704 29626 29630 28
23705 29631 29632 28
23706 29631 29633 28
23707 29631 29634 28
23708 29631 29635 28
23709 29636 29637 28
23710 29636 29638 28
23711 29636 29639 28
23712 29636 29640 28
23713 29641 29642 28
23714 29641 29643 28
23715 29641 29644 28
23716 29641 29645 28
23717 29646 29647 28
23718 29646 29648 28
23719 29646 29649 28
23720 29646 29650 28
23721 29651 29652 28
23722 29651 29653 28
23723 29651 29654 28
23724 29651 29655 28
23725 29656 29657 28
23726 29656 29658 28
23727 29656 29659 28
23728 29656 29660 28
23729 29661 29662 28
23730 29661 29663 28
23731 29661 29664 28
23732 29661 29665 28
23733 29666 29667 28
23734 29666 29668 28
23735 29666 29669 28
23736 29666 29670 28
23737 29671 29672 28
23738 29671 29673 28
23739 29671 29674 28
23740 29671 29675 28
23741 29676 29677 28
23742 29676 29678 28
23743 29676 29679 28
23744 29676 29680 28
23745 29681 29682 28
23746 29681 29683 28
23747 29681 29684 28
23748 29681 29685 28
23749 29686 29687 28
23750 29686 29688 28
23751 29686 29689 28
23752 29686 29690 28
23753 29691 29692 28
23754 29691 29693 28
23755 29691 29694 28
23756 29691 29695 28
23757 29696 29697 28
23758 29696 29698 28
23759 29696 29699 28
23760 29696 29700 28
23761 29701 29702 28
23762 29701 29703 28
23763 29701 29704 28
23764 29701 29705 28
23765 29706 29707 28
23766 29706 29708 28
23767 29706 29709 28
23768 29706 29710 28
23769 29711 29712 28
23770 29711 29713 28
23771 29711 29714 28
23772 29711 29715 28
23773 29716 29717 28
23774 29716 29718 28
23775 29716 29719 28
23776 29716 29720 28
23777 29721 29722 28
23778 29721 29723 28
23779 29721 29724 28
23780 29721 29725 28
23781 29726 29727 28
23782 29726 29728 28
23783 29726 29729 28
23784 29726 29730 28
23785 29731 29732 28
23786 29731 29733 28
23787 29731 29734 28
23788 29731 29735 28
23789 29736 29737 28
23790 29736 29738 28
23791 29736 29739 28
23792 29736 29740 28
23793 29741 29742 28
23794 29741 29743 28
23795 29741 29744 28
23796 29741 29745 28
23797 29746 29747 28
23798 29746 29748 28
23799 29746 29749 28
23800 29746 29750 28
23801 29751 29752 28
23802 29751 29753 28
23803 29751 29754 28
23804 29751 29755 28
23805 29756 29757 28
23806 29756 29758 28
23807 29756 29759 28
23808 29756 29760 28
23809 29761 29762 28
23810 29761 29763 28
23811 29761 29764 28
23812 29761 29765 28
23813 29766 29767 28
23814 29766 29768 28
23815 29766 29769 28
23816 29766 29770 28
23817 29771 29772 28
23818 29771 29773 28
23819 29771 29774 28
23820 29771 29775 28
23821 29776 29777 28
23822 29776 29778 28
23823 29776 29779 28
23824 29776 29780 28
23825 29781 29782 28
23826 29781 29783 28
23827 29781 29784 28
23828 29781 29785 28
23829 29786 29787 28
23830 29786 29788 28
23831 29786 29789 28
23832 29786 29790 28
23833 29791 29792 28
23834 29791 29793 28
23835 29791 29794 28
23836 29791 29795 28
23837 29796 29797 28
23838 29796 29798 28
23839 29796 29799 28
23840 29796 29800 28
23841 29801 29802 28
23842 29801 29803 28
23843 29801 29804 28
23844 29801 29805 28
23845 29806 29807 28
23846 29806 29808 28
23847 29806 29809 28
23848 29806 29810 28
23849 29811 29812 28
23850 29811 29813 28
23851 29811 29814 28
23852 29811 29815 28
23853 29816 29817 28
23854 29816 29818 28
23855 29816 29819 28
23856 29816 29820 28
23857 29821 29822 28
23858 29821 29823 28
23859 29821 29824 28
23860 29821 29825 28
23861 29826 29827 28
23862 29826 29828 28
23863 29826 29829 28
23864 29826 29830 28
23865 29831 29832 28
23866 29831 29833 28
23867 29831 29834 28
23868 29831 29835 28
23869 29836 29837 28
23870 29836 29838 28
23871 29836 29839 28
23872 29836 29840 28
23873 29841 29842 28
23874 29841 29843 28
23875 29841 29844 28
23876 29841 29845 28
23877 29846 29847 28
23878 29846 29848 28
23879 29846 29849 28
23880 29846 29850 28
23881 29851 29852 28
23882 29851 29853 28
23883 29851 29854 28
23884 29851 29855 28
23885 29856 29857 28
23886 29856 29858 28
23887 29856 29859 28
23888 29856 29860 28
23889 29861 29862 28
23890 29861 29863 28
23891 29861 29864 28
23892 29861 29865 28
23893 29866 29867 28
23894 29866 29868 28
23895 29866 29869 28
23896 29866 29870 28
23897 29871 29872 28
23898 29871 29873 28
23899 29871 29874 28
23900 29871 29875 28
23901 29876 29877 28
23902 29876 29878 28
23903 29876 29879 28
23904 29876 29880 28
23905 29881 29882 28
23906 29881 29883 28
23907 29881 29884 28
23908 29881 29885 28
23909 29886 29887 28
23910 29886 29888 28
23911 29886 29889 28
23912 29886 29890 28
23913 29891 29892 28
23914 29891 29893 28
23915 29891 29894 28
23916 29891 29895 28
23917 29896 29897 28
23918 29896 29898 28
23919 29896 29899 28
23920 29896 29900 28
23921 29901 29902 28
23922 29901 29903 28
23923 29901 29904 28
23924 29901 29905 28
23925 29906 29907 28
23926 29906 29908 28
23927 29906 29909 28
23928 29906 29910 28
23929 29911 29912 28
23930 29911 29913 28
23931 29911 29914 28
23932 29911 29915 28
23933 29916 29917 28
23934 29916 29918 28
23935 29916 29919 28
23936 29916 29920 28
23937 29921 29922 28
23938 29921 29923 28
23939 29921 29924 28
23940 29921 29925 28
23941 29926 29927 28
23942 29926 29928 28
23943 29926 29929 28
23944 29926 29930 28
23945 29931 29932 28
23946 29931 29933 28
23947 29931 29934 28
23948 29931 29935 28
23949 29936 29937 28
23950 29936 29938 28
23951 29936 29939 28
23952 29936 29940 28
23953 29941 29942 28
23954 29941 29943 28
23955 29941 29944 28
23956 29941 29945 28
23957 29946 29947 28
23958 29946 29948 28
23959 29946 29949 28
23960 29946 29950 28
23961 29951 29952 28
23962 29951 29953 28
23963 29951 29954 28
23964 29951 29955 28
23965 29956 29957 28
23966 29956 29958 28
23967 29956 29959 28
23968 29956 29960 28
23969 29961 29962 28
23970 29961 29963 28
23971 29961 29964 28
23972 29961 29965 28
23973 29966 29967 28
23974 29966 29968 28
23975 29966 29969 28
23976 29966 29970 28
23977 29971 29972 28
23978 29971 29973 28
23979 29971 29974 28
23980 29971 29975 28
23981 29976 29977 28
23982 29976 29978 28
23983 29976 29979 28
23984 29976 29980 28
23985 29981 29982 28
23986 29981 29983 28
23987 29981 29984 28
23988 29981 29985 28
23989 29986 29987 28
23990 29986 29988 28
23991 29986 29989 28
23992 29986 29990 28
23993 29991 29992 28
23994 29991 29993 28
23995 29991 29994 28
23996 29991 29995 28
23997 29996 29997 28
23998 29996 29998 28
23999 29996 29999 28
24000 29996 30000 28
24001 30001 30002 28
24002 30001 30003 28
24003 30001 30004 28
24004 30001 30005 28
24005 30006 30007 28
24006 30006 30008 28
24007 30006 30009 28
24008 30006 30010 28
24009 30011 30012 28
24010 30011 30013 28
24011 30011 30014 28
24012 30011 30015 28
24013 30016 30017 28
24014 30016 30018 28
24015 30016 30019 28
24016 30016 30020 28
24017 30021 30022 28
24018 30021 30023 28
24019 30021 30024 28
24020 30021 30025 28
24021 30026 30027 28
24022 30026 30028 28
24023 30026 30029 28
24024 30026 30030 28
24025 30031 30032 28
24026 30031 30033 28
24027 30031 30034 28
24028 30031 30035 28
24029 30036 30037 28
24030 30036 30038 28
24031 30036 30039 28
24032 30036 30040 28
24033 30041 30042 28
24034 30041 30043 28
24035 30041 30044 28
24036 30041 30045 28
24037 30046 30047 28
24038 30046 30048 28
24039 30046 30049 28
24040 30046 30050 28
24041 30051 30052 28
24042 30051 30053 28
24043 30051 30054 28
24044 30051 30055 28
24045 30056 30057 28
24046 30056 30058 28
24047 30056 30059 28
24048 30056 30060 28
24049 30061 30062 28
24050 30061 30063 28
24051 30061 30064 28
24052 30061 30065 28
24053 30066 30067 28
24054 30066 30068 28
24055 30066 30069 28
24056 30066 30070 28
24057 30071 30072 28
24058 30071 30073 28
24059 30071 30074 28
24060 30071 30075 28
24061 30076 30077 28
24062 30076 30078 28
24063 30076 30079 28
24064 30076 30080 28
24065 30081 30082 28
24066 30081 30083 28
24067 30081 30084 28
24068 30081 30085 28
24069 30086 30087 28
24070 30086 30088 28
24071 30086 30089 28
24072 30086 30090 28
24073 30091 30092 28
24074 30091 30093 28
24075 30091 30094 28
24076 30091 30095 28
24077 30096 30097 28
24078 30096 30098 28
24079 30096 30099 28
24080 30096 30100 28
24081 30101 30102 28
24082 30101 30103 28
24083 30101 30104 28
24084 30101 30105 28
24085 30106 30107 28
24086 30106 30108 28
24087 30106 30109 28
24088 30106 30110 28
24089 30111 30112 28
24090 30111 30113 28
24091 30111 30114 28
24092 30111 30115 28
24093 30116 30117 28
24094 30116 30118 28
24095 30116 30119 28
24096 30116 30120 28
24097 30121 30122 28
24098 30121 30123 28
24099 30121 30124 28
24100 30121 30125 28
24101 30126 30127 28
24102 30126 30128 28
24103 30126 30129 28
24104 30126 30130 28
24105 30131 30132 28
24106 30131 30133 28
24107 30131 30134 28
24108 30131 30135 28
24109 30136 30137 28
24110 30136 30138 28
24111 30136 30139 28
24112 30136 30140 28
24113 30141 30142 28
24114 30141 30143 28
24115 30141 30144 28
24116 30141 30145 28
24117 30146 30147 28
24118 30146 30148 28
24119 30146 30149 28
24120 30146 30150 28
24121 30151 30152 28
24122 30151 30153 28
24123 30151 30154 28
24124 30151 30155 28
24125 30156 30157 28
24126 30156 30158 28
24127 30156 30159 28
24128 30156 30160 28
24129 30161 30162 28
24130 30161 30163 28
24131 30161 30164 28
24132 30161 30165 28
24133 30166 30167 28
24134 30166 30168 28
24135 30166 30169 28
24136 30166 30170 28
24137 30171 30172 28
24138 30171 30173 28
24139 30171 30174 28
24140 30171 30175 28
24141 30176 30177 28
24142 30176 30178 28
24143 30176 30179 28
24144 30176 30180 28
24145 30181 30182 28
24146 30181 30183 28
24147 30181 30184 28
24148 30181 30185 28
24149 30186 30187 28
24150 30186 30188 28
24151 30186 30189 28
24152 30186 30190 28
24153 30191 30192 28
24154 30191 30193 28
24155 30191 30194 28
24156 30191 30195 28
24157 30196 30197 28
24158 30196 30198 28
24159 30196 30199 28
24160 30196 30200 28
24161 30201 30202 28
24162 30201 30203 28
24163 30201 30204 28
24164 30201 30205 28
24165 30206 30207 28
24166 30206 30208 28
24167 30206 30209 28
24168 30206 30210 28
24169 30211 30212 28
24170 30211 30213 28
24171 30211 30214 28
24172 30211 30215 28
24173 30216 30217 28
24174 30216 30218 28
24175 30216 30219 28
24176 30216 30220 28
24177 30221 30222 28
24178 30221 30223 28
24179 30221 30224 28
24180 30221 30225 28
24181 30226 30227 28
24182 30226 30228 28
24183 30226 30229 28
24184 30226 30230 28
24185 30231 30232 28
24186 30231 30233 28
24187 30231 30234 28
24188 30231 30235 28
24189 30236 30237 28
24190 30236 30238 28
24191 30236 30239 28
24192 30236 30240 28
24193 30241 30242 28
24194 30241 30243 28
24195 30241 30244 28
24196 30241 30245 28
24197 30246 30247 28
24198 30246 30248 28
24199 30246 30249 28
24200 30246 30250 28
24201 30251 30252 28
24202 30251 30253 28
24203 30251 30254 28
24204 30251 30255 28
24205 30256 30257 28
24206 30256 30258 28
24207 30256 30259 28
24208 30256 30260 28
24209 30261 30262 28
24210 30261 30263 28
24211 30261 30264 28
24212 30261 30265 28
24213 30266 30267 28
24214 30266 30268 28
24215 30266 30269 28
24216 30266 30270 28
24217 30271 30272 28
24218 30271 30273 28
24219 30271 30274 28
24220 30271 30275 28
24221 30276 30277 28
24222 30276 30278 28
24223 30276 30279 28
24224 30276 30280 28
24225 30281 30282 28
24226 30281 30283 28
24227 30281 30284 28
24228 30281 30285 28
24229 30286 30287 28
24230 30286 30288 28
24231 30286 30289 28
24232 30286 30290 28
24233 30291 30292 28
24234 30291 30293 28
24235 30291 30294 28
24236 30291 30295 28
24237 30296 30297 28
24238 30296 30298 28
24239 30296 30299 28
24240 30296 30300 28
24241 30301 30302 28
24242 30301 30303 28
24243 30301 30304 28
24244 30301 30305 28
24245 30306 30307 28
24246 30306 30308 28
24247 30306 30309 28
24248 30306 30310 28
24249 30311 30312 28
24250 30311 30313 28
24251 30311 30314 28
24252 30311 30315 28
24253 30316 30317 28
24254 30316 30318 28
24255 30316 30319 28
24256 30316 30320 28
24257 30321 30322 28
24258 30321 30323 28
24259 30321 30324 28
24260 30321 30325 28
24261 30326 30327 28
24262 30326 30328 28
24263 30326 30329 28
24264 30326 30330 28
24265 30331 30332 28
24266 30331 30333 28
24267 30331 30334 28
24268 30331 30335 28
24269 30336 30337 28
24270 30336 30338 28
24271 30336 30339 28
24272 30336 30340 28
24273 30341 30342 28
24274 30341 30343 28
24275 30341 30344 28
24276 30341 30345 28
24277 30346 30347 28
24278 30346 30348 28
24279 30346 30349 28
24280 30346 30350 28
24281 30351 30352 28
24282 30351 30353 28
24283 30351 30354 28
24284 30351 30355 28
24285 30356 30357 28
24286 30356 30358 28
24287 30356 30359 28
24288 30356 30360 28
24289 30361 30362 28
24290 30361 30363 28
24291 30361 30364 28
24292 30361 30365 28
24293 30366 30367 28
24294 30366 30368 28
24295 30366 30369 28
24296 30366 30370 28
24297 30371 30372 28
24298 30371 30373 28
24299 30371 30374 28
24300 30371 30375 28
24301 30376 30377 28
24302 30376 30378 28
24303 30376 30379 28
24304 30376 30380 28
24305 30381 30382 28
24306 30381 30383 28
24307 30381 30384 28
24308 30381 30385 28
24309 30386 30387 28
24310 30386 30388 28
24311 30386 30389 28
24312 30386 30390 28
24313 30391 30392 28
24314 30391 30393 28
24315 30391 30394 28
24316 30391 30395 28
24317 30396 30397 28
24318 30396 30398 28
24319 30396 30399 28
24320 30396 30400 28
24321 30401 30402 28
24322 30401 30403 28
24323 30401 30404 28
24324 30401 30405 28
24325 30406 30407 28
24326 30406 30408 28
24327 30406 30409 28
24328 30406 30410 28
24329 30411 30412 28
24330 30411 30413 28
24331 30411 30414 28
24332 30411 30415 28
24333 30416 30417 28
24334 30416 30418 28
24335 30416 30419 28
24336 30416 30420 28
24337 30421 30422 28
24338 30421 30423 28
24339 30421 30424 28
24340 30421 30425 28
24341 30426 30427 28
24342 30426 30428 28
24343 30426 30429 28
24344 30426 30430 28
24345 30431 30432 28
24346 30431 30433 28
24347 30431 30434 28
24348 30431 30435 28
24349 30436 30437 28
24350 30436 30438 28
24351 30436 30439 28
24352 30436 30440 28
24353 30441 30442 28
24354 30441 30443 28
24355 30441 30444 28
24356 30441 30445 28
24357 30446 30447 28
24358 30446 30448 28
24359 30446 30449 28
24360 30446 30450 28
24361 30451 30452 28
24362 30451 30453 28
24363 30451 30454 28
24364 30451 30455 28
24365 30456 30457 28
24366 30456 30458 28
24367 30456 30459 28
24368 30456 30460 28
24369 30461 30462 28
24370 30461 30463 28
24371 30461 30464 28
24372 30461 30465 28
24373 30466 30467 28
24374 30466 30468 28
24375 30466 30469 28
24376 30466 30470 28
24377 30471 30472 28
24378 30471 30473 28
24379 30471 30474 28
24380 30471 30475 28
24381 30476 30477 28
24382 30476 30478 28
24383 30476 30479 28
24384 30476 30480 28
24385 30481 30482 28
24386 30481 30483 28
24387 30481 30484 28
24388 30481 30485 28
24389 30486 30487 28
24390 30486 30488 28
24391 30486 30489 28
24392 30486 30490 28
24393 30491 30492 28
24394 30491 30493 28
24395 30491 30494 28
24396 30491 30495 28
24397 30496 30497 28
24398 30496 30498 28
24399 30496 30499 28
24400 30496 30500 28
24401 30501 30502 28
24402 30501 30503 28
24403 30501 30504 28
24404 30501 30505 28
24405 30506 30507 28
24406 30506 30508 28
24407 30506 30509 28
24408 30506 30510 28
24409 30511 30512 28
24410 30511 30513 28
24411 30511 30514 28
24412 30511 30515 28
24413 30516 30517 28
24414 30516 30518 28
24415 30516 30519 28
24416 30516 30520 28
24417 30521 30522 28
24418 30521 30523 28
24419 30521 30524 28
24420 30521 30525 28
24421 30526 30527 28
24422 30526 30528 28
24423 30526 30529 28
24424 30526 30530 28
24425 30531 30532 28
24426 30531 30533 28
24427 30531 30534 28
24428 30531 30535 28
24429 30536 30537 28
24430 30536 30538 28
24431 30536 30539 28
24432 30536 30540 28
24433 30541 30542 28
24434 30541 30543 28
24435 30541 30544 28
24436 30541 30545 28
24437 30546 30547 28
24438 30546 30548 28
24439 30546 30549 28
24440 30546 30550 28
24441 30551 30552 28
24442 30551 30553 28
24443 30551 30554 28
24444 30551 30555 28
24445 30556 30557 28
24446 30556 30558 28
24447 30556 30559 28
24448 30556 30560 28
24449 30561 30562 28
24450 30561 30563 28
24451 30561 30564 28
24452 30561 30565 28
24453 30566 30567 28
24454 30566 30568 28
24455 30566 30569 28
24456 30566 30570 28
24457 30571 30572 28
24458 30571 30573 28
24459 30571 30574 28
24460 30571 30575 28
24461 30576 30577 28
24462 30576 30578 28
24463 30576 30579 28
24464 30576 30580 28
24465 30581 30582 28
24466 30581 30583 28
24467 30581 30584 28
24468 30581 30585 28
24469 30586 30587 28
24470 30586 30588 28
24471 30586 30589 28
24472 30586 30590 28
24473 30591 30592 28
24474 30591 30593 28
24475 30591 30594 28
24476 30591 30595 28
24477 30596 30597 28
24478 30596 30598 28
24479 30596 30599 28
24480 30596 30600 28
24481 30601 30602 28
24482 30601 30603 28
24483 30601 30604 28
24484 30601 30605 28
24485 30606 30607 28
24486 30606 30608 28
24487 30606 30609 28
24488 30606 30610 28
24489 30611 30612 28
24490 30611 30613 28
24491 30611 30614 28
24492 30611 30615 28
24493 30616 30617 28
24494 30616 30618 28
24495 30616 30619 28
24496 30616 30620 28
24497 30621 30622 28
24498 30621 30623 28
24499 30621 30624 28
24500 30621 30625 28
24501 30626 30627 28
24502 30626 30628 28
24503 30626 30629 28
24504 30626 30630 28
24505 30631 30632 28
24506 30631 30633 28
24507 30631 30634 28
24508 30631 30635 28
24509 30636 30637 28
24510 30636 30638 28
24511 30636 30639 28
24512 30636 30640 28
24513 30641 30642 28
24514 30641 30643 28
24515 30641 30644 28
24516 30641 30645 28
24517 30646 30647 28
24518 30646 30648 28
24519 30646 30649 28
24520 30646 30650 28
24521 30651 30652 28
24522 30651 30653 28
24523 30651 30654 28
24524 30651 30655 28
24525 30656 30657 28
24526 30656 30658 28
24527 30656 30659 28
24528 30656 30660 28
24529 30661 30662 28
24530 30661 30663 28
24531 30661 30664 28
24532 30661 30665 28
24533 30666 30667 28
24534 30666 30668 28
24535 30666 30669 28
24536 30666 30670 28
24537 30671 30672 28
24538 30671 30673 28
24539 30671 30674 28
24540 30671 30675 28
24541 30676 30677 28
24542 30676 30678 28
24543 30676 30679 28
24544 30676 30680 28
24545 30681 30682 28
24546 30681 30683 28
24547 30681 30684 28
24548 30681 30685 28
24549 30686 30687 28
24550 30686 30688 28
24551 30686 30689 28
24552 30686 30690 28
24553 30691 30692 28
24554 30691 30693 28
24555 30691 30694 28
24556 30691 30695 28
24557 30696 30697 28
24558 30696 30698 28
24559 30696 30699 28
24560 30696 30700 28
24561 30701 30702 28
24562 30701 30703 28
24563 30701 30704 28
24564 30701 30705 28
24565 30706 30707 28
24566 30706 30708 28
24567 30706 30709 28
24568 30706 30710 28
24569 30711 30712 28
24570 30711 30713 28
24571 30711 30714 28
24572 30711 30715 28
24573 30716 30717 28
24574 30716 30718 28
24575 30716 30719 28
24576 30716 30720 28
24577 30721 30722 28
24578 30721 30723 28
24579 30721 30724 28
24580 30721 30725 28
24581 30726 30727 28
24582 30726 30728 28
24583 30726 30729 28
24584 30726 30730 28
24585 30731 30732 28
24586 30731 30733 28
24587 30731 30734 28
24588 30731 30735 28
24589 30736 30737 28
24590 30736 30738 28
24591 30736 30739 28
24592 30736 30740 28
24593 30741 30742 28
24594 30741 30743 28
24595 30741 30744 28
24596 30741 30745 28
24597 30746 30747 28
24598 30746 30748 28
24599 30746 30749 28
24600 30746 30750 28
24601 30751 30752 28
24602 30751 30753 28
24603 30751 30754 28
24604 30751 30755 28
24605 30756 30757 28
24606 30756 30758 28
24607 30756 30759 28
24608 30756 30760 28
24609 30761 30762 28
24610 30761 30763 28
24611 30761 30764 28
24612 30761 30765 28
24613 30766 30767 28
24614 30766 30768 28
24615 30766 30769 28
24616 30766 30770 28
24617 30771 30772 28
24618 30771 30773 28
24619 30771 30774 28
24620 30771 30775 28
24621 30776 30777 28
24622 30776 30778 28
24623 30776 30779 28
24624 30776 30780 28
24625 30781 30782 28
24626 30781 30783 28
24627 30781 30784 28
24628 30781 30785 28
24629 30786 30787 28
24630 30786 30788 28
24631 30786 30789 28
24632 30786 30790 28
24633 30791 30792 28
24634 30791 30793 28
24635 30791 30794 28
24636 30791 30795 28
24637 30796 30797 28
24638 30796 30798 28
24639 30796 30799 28
24640 30796 30800 28
24641 30801 30802 28
24642 30801 30803 28
24643 30801 30804 28
24644 30801 30805 28
24645 30806 30807 28
24646 30806 30808 28
24647 30806 30809 28
24648 30806 30810 28
24649 30811 30812 28
24650 30811 30813 28
24651 30811 30814 28
24652 30811 30815 28
24653 30816 30817 28
24654 30816 30818 28
24655 30816 30819 28
24656 30816 30820 28
24657 30821 30822 28
24658 30821 30823 28
24659 30821 30824 28
24660 30821 30825 28
24661 30826 30827 28
24662 30826 30828 28
24663 30826 30829 28
24664 30826 30830 28
24665 30831 30832 28
24666 30831 30833 28
24667 30831 30834 28
24668 30831 30835 28
24669 30836 30837 28
24670 30836 30838 28
24671 30836 30839 28
24672 30836 30840 28
24673 30841 30842 28
24674 30841 30843 28
24675 30841 30844 28
24676 30841 30845 28
24677 30846 30847 28
24678 30846 30848 28
24679 30846 30849 28
24680 30846 30850 28
24681 30851 30852 28
24682 30851 30853 28
24683 30851 30854 28
24684 30851 30855 28
24685 30856 30857 28
24686 30856 30858 28
24687 30856 30859 28
24688 30856 30860 28
24689 30861 30862 28
24690 30861 30863 28
24691 30861 30864 28
24692 30861 30865 28
24693 30866 30867 28
24694 30866 30868 28
24695 30866 30869 28
24696 30866 30870 28
24697 30871 30872 28
24698 30871 30873 28
24699 30871 30874 28
24700 30871 30875 28
24701 30876 30877 28
24702 30876 30878 28
24703 30876 30879 28
24704 30876 30880 28
24705 30881 30882 28
24706 30881 30883 28
24707 30881 30884 28
24708 30881 30885 28
24709 30886 30887 28
24710 30886 30888 28
24711 30886 30889 28
24712 30886 30890 28
24713 30891 30892 28
24714 30891 30893 28
24715 30891 30894 28
24716 30891 30895 28
24717 30896 30897 28
24718 30896 30898 28
24719 30896 30899 28
24720 30896 30900 28
24721 30901 30902 28
24722 30901 30903 28
24723 30901 30904 28
24724 30901 30905 28
24725 30906 30907 28
24726 30906 30908 28
24727 30906 30909 28
24728 30906 30910 28
24729 30911 30912 28
24730 30911 30913 28
24731 30911 30914 28
24732 30911 30915 28
24733 30916 30917 28
24734 30916 30918 28
24735 30916 30919 28
24736 30916 30920 28
24737 30921 30922 28
24738 30921 30923 28
24739 30921 30924 28
24740 30921 30925 28
24741 30926 30927 28
24742 30926 30928 28
24743 30926 30929 28
24744 30926 30930 28
24745 30931 30932 28
24746 30931 30933 28
24747 30931 30934 28
24748 30931 30935 28
24749 30936 30937 28
24750 30936 30938 28
24751 30936 30939 28
24752 30936 30940 28
24753 30941 30942 28
24754 30941 30943 28
24755 30941 30944 28
24756 30941 30945 28
24757 30946 30947 28
24758 30946 30948 28
24759 30946 30949 28
24760 30946 30950 28
24761 30951 30952 28
24762 30951 30953 28
24763 30951 30954 28
24764 30951 30955 28
24765 30956 30957 28
24766 30956 30958 28
24767 30956 30959 28
24768 30956 30960 28
24769 30961 30962 28
24770 30961 30963 28
24771 30961 30964 28
24772 30961 30965 28
24773 30966 30967 28
24774 30966 30968 28
24775 30966 30969 28
24776 30966 30970 28
24777 30971 30972 28
24778 30971 30973 28
24779 30971 30974 28
24780 30971 30975 28
24781 30976 30977 28
24782 30976 30978 28
24783 30976 30979 28
24784 30976 30980 28
24785 30981 30982 28
24786 30981 30983 28
24787 30981 30984 28
24788 30981 30985 28
24789 30986 30987 28
24790 30986 30988 28
24791 30986 30989 28
24792 30986 30990 28
24793 30991 30992 28
24794 30991 30993 28
24795 30991 30994 28
24796 30991 30995 28
24797 30996 30997 28
24798 30996 30998 28
24799 30996 30999 28
24800 30996 31000 28
24801 31001 31002 28
24802 31001 31003 28
24803 31001 31004 28
24804 31001 31005 28
24805 31006 31007 28
24806 31006 31008 28
24807 31006 31009 28
24808 31006 31010 28
24809 31011 31012 28
24810 31011 31013 28
24811 31011 31014 28
24812 31011 31015 28
24813 31016 31017 28
24814 31016 31018 28
24815 31016 31019 28
24816 31016 31020 28
24817 31021 31022 28
24818 31021 31023 28
24819 31021 31024 28
24820 31021 31025 28
24821 31026 31027 28
24822 31026 31028 28
24823 31026 31029 28
24824 31026 31030 28
24825 31031 31032 28
24826 31031 31033 28
24827 31031 31034 28
24828 31031 31035 28
24829 31036 31037 28
24830 31036 31038 28
24831 31036 31039 28
24832 31036 31040 28
24833 31041 31042 28
24834 31041 31043 28
24835 31041 31044 28
24836 31041 31045 28
24837 31046 31047 28
24838 31046 31048 28
24839 31046 31049 28
24840 31046 31050 28
24841 31051 31052 28
24842 31051 31053 28
24843 31051 31054 28
24844 31051 31055 28
24845 31056 31057 28
24846 31056 31058 28
24847 31056 31059 28
24848 31056 31060 28
24849 31061 31062 28
24850 31061 31063 28
24851 31061 31064 28
24852 31061 31065 28
24853 31066 31067 28
24854 31066 31068 28
24855 31066 31069 28
24856 31066 31070 28
24857 31071 31072 28
24858 31071 31073 28
24859 31071 31074 28
24860 31071 31075 28
24861 31076 31077 28
24862 31076 31078 28
24863 31076 31079 28
24864 31076 31080 28
24865 31081 31082 28
24866 31081 31083 28
24867 31081 31084 28
24868 31081 31085 28
24869 31086 31087 28
24870 31086 31088 28
24871 31086 31089 28
24872 31086 31090 28
24873 31091 31092 28
24874 31091 31093 28
24875 31091 31094 28
24876 31091 31095 28
24877 31096 31097 28
24878 31096 31098 28
24879 31096 31099 28
24880 31096 31100 28
24881 31101 31102 28
24882 31101 31103 28
24883 31101 31104 28
24884 31101 31105 28
24885 31106 31107 28
24886 31106 31108 28
24887 31106 31109 28
24888 31106 31110 28
24889 31111 31112 28
24890 31111 31113 28
24891 31111 31114 28
24892 31111 31115 28
24893 31116 31117 28
24894 31116 31118 28
24895 31116 31119 28
24896 31116 31120 28
24897 31121 31122 28
24898 31121 31123 28
24899 31121 31124 28
24900 31121 31125 28
24901 31126 31127 28
24902 31126 31128 28
24903 31126 31129 28
24904 31126 31130 28
24905 31131 31132 28
24906 31131 31133 28
24907 31131 31134 28
24908 31131 31135 28
24909 31136 31137 28
24910 31136 31138 28
24911 31136 31139 28
24912 31136 31140 28
24913 31141 31142 28
24914 31141 31143 28
24915 31141 31144 28
24916 31141 31145 28
24917 31146 31147 28
24918 31146 31148 28
24919 31146 31149 28
24920 31146 31150 28
24921 31151 31152 28
24922 31151 31153 28
24923 31151 31154 28
24924 31151 31155 28
24925 31156 31157 28
24926 31156 31158 28
24927 31156 31159 28
24928 31156 31160 28
24929 31161 31162 28
24930 31161 31163 28
24931 31161 31164 28
24932 31161 31165 28
24933 31166 31167 28
24934 31166 31168 28
24935 31166 31169 28
24936 31166 31170 28
24937 31171 31172 28
24938 31171 31173 28
24939 31171 31174 28
24940 31171 31175 28
24941 31176 31177 28
24942 31176 31178 28
24943 31176 31179 28
24944 31176 31180 28
24945 31181 31182 28
24946 31181 31183 28
24947 31181 31184 28
24948 31181 31185 28
24949 31186 31187 28
24950 31186 31188 28
24951 31186 31189 28
24952 31186 31190 28
24953 31191 31192 28
24954 31191 31193 28
24955 31191 31194 28
24956 31191 31195 28
24957 31196 31197 28
24958 31196 31198 28
24959 31196 31199 28
24960 31196 31200 28
24961 31201 31202 28
24962 31201 31203 28
24963 31201 31204 28
24964 31201 31205 28
24965 31206 31207 28
24966 31206 31208 28
24967 31206 31209 28
24968 31206 31210 28
24969 31211 31212 28
24970 31211 31213 28
24971 31211 31214 28
24972 31211 31215 28
24973 31216 31217 28
24974 31216 31218 28
24975 31216 31219 28
24976 31216 31220 28
24977 31221 31222 28
24978 31221 31223 28
24979 31221 31224 28
24980 31221 31225 28
24981 31226 31227 28
24982 31226 31228 28
24983 31226 31229 28
24984 31226 31230 28
24985 31231 31232 28
24986 31231 31233 28
24987 31231 31234 28
24988 31231 31235 28
24989 31236 31237 28
24990 31236 31238 28
24991 31236 31239 28
24992 31236 31240 28
24993 31241 31242 28
24994 31241 31243 28
24995 31241 31244 28
24996 31241 31245 28
24997 31246 31247 28
24998 31246 31248 28
24999 31246 31249 28
25000 31246 31250 28
25001 31251 31252 28
25002 31251 31253 28
25003 31251 31254 28
25004 31251 31255 28
25005 31256 31257 28
25006 31256 31258 28
25007 31256 31259 28
25008 31256 31260 28
25009 31261 31262 28
25010 31261 31263 28
25011 31261 31264 28
25012 31261 31265 28
25013 31266 31267 28
25014 31266 31268 28
25015 31266 31269 28
25016 31266 31270 28
25017 31271 31272 28
25018 31271 31273 28
25019 31271 31274 28
25020 31271 31275 28
25021 31276 31277 28
25022 31276 31278 28
25023 31276 31279 28
25024 31276 31280 28
25025 31281 31282 28
25026 31281 31283 28
25027 31281 31284 28
25028 31281 31285 28
25029 31286 31287 28
25030 31286 31288 28
25031 31286 31289 28
25032 31286 31290 28
25033 31291 31292 28
25034 31291 31293 28
25035 31291 31294 28
25036 31291 31295 28
25037 31296 31297 28
25038 31296 31298 28
25039 31296 31299 28
25040 31296 31300 28
25041 31301 31302 28
25042 31301 31303 28
25043 31301 31304 28
25044 31301 31305 28
25045 31306 31307 28
25046 31306 31308 28
25047 31306 31309 28
25048 31306 31310 28
25049 31311 31312 28
25050 31311 31313 28
25051 31311 31314 28
25052 31311 31315 28
25053 31316 31317 28
25054 31316 31318 28
25055 31316 31319 28
25056 31316 31320 28
25057 31321 31322 28
25058 31321 31323 28
25059 31321 31324 28
25060 31321 31325 28
25061 31326 31327 28
25062 31326 31328 28
25063 31326 31329 28
25064 31326 31330 28
25065 31331 31332 28
25066 31331 31333 28
25067 31331 31334 28
25068 31331 31335 28
25069 31336 31337 28
25070 31336 31338 28
25071 31336 31339 28
25072 31336 31340 28
25073 31341 31342 28
25074 31341 31343 28
25075 31341 31344 28
25076 31341 31345 28
25077 31346 31347 28
25078 31346 31348 28
25079 31346 31349 28
25080 31346 31350 28
25081 31351 31352 28
25082 31351 31353 28
25083 31351 31354 28
25084 31351 31355 28
25085 31356 31357 28
25086 31356 31358 28
25087 31356 31359 28
25088 31356 31360 28
25089 31361 31362 28
25090 31361 31363 28
25091 31361 31364 28
25092 31361 31365 28
25093 31366 31367 28
25094 31366 31368 28
25095 31366 31369 28
25096 31366 31370 28
25097 31371 31372 28
25098 31371 31373 28
25099 31371 31374 28
25100 31371 31375 28
25101 31376 31377 28
25102 31376 31378 28
25103 31376 31379 28
25104 31376 31380 28
25105 31381 31382 28
25106 31381 31383 28
25107 31381 31384 28
25108 31381 31385 28
25109 31386 31387 28
25110 31386 31388 28
25111 31386 31389 28
25112 31386 31390 28
25113 31391 31392 28
25114 31391 31393 28
25115 31391 31394 28
25116 31391 31395 28
25117 31396 31397 28
25118 31396 31398 28
25119 31396 31399 28
25120 31396 31400 28
25121 31401 31402 28
25122 31401 31403 28
25123 31401 31404 28
25124 31401 31405 28
25125 31406 31407 28
25126 31406 31408 28
25127 31406 31409 28
25128 31406 31410 28
25129 31411 31412 28
25130 31411 31413 28
25131 31411 31414 28
25132 31411 31415 28
25133 31416 31417 28
25134 31416 31418 28
25135 31416 31419 28
25136 31416 31420 28
25137 31421 31422 28
25138 31421 31423 28
25139 31421 31424 28
25140 31421 31425 28
25141 31426 31427 28
25142 31426 31428 28
25143 31426 31429 28
25144 31426 31430 28
25145 31431 31432 28
25146 31431 31433 28
25147 31431 31434 28
25148 31431 31435 28
25149 31436 31437 28
25150 31436 31438 28
25151 31436 31439 28
25152 31436 31440 28
25153 31441 31442 28
25154 31441 31443 28
25155 31441 31444 28
25156 31441 31445 28
25157 31446 31447 28
25158 31446 31448 28
25159 31446 31449 28
25160 31446 31450 28
25161 31451 31452 28
25162 31451 31453 28
25163 31451 31454 28
25164 31451 31455 28
25165 31456 31457 28
25166 31456 31458 28
25167 31456 31459 28
25168 31456 31460 28
25169 31461 31462 28
25170 31461 31463 28
25171 31461 31464 28
25172 31461 31465 28
25173 31466 31467 28
25174 31466 31468 28
25175 31466 31469 28
25176 31466 31470 28
25177 31471 31472 28
25178 31471 31473 28
25179 31471 31474 28
25180 31471 31475 28
25181 31476 31477 28
25182 31476 31478 28
25183 31476 31479 28
25184 31476 31480 28
25185 31481 31482 28
25186 31481 31483 28
25187 31481 31484 28
25188 31481 31485 28
25189 31486 31487 28
25190 31486 31488 28
25191 31486 31489 28
25192 31486 31490 28
25193 31491 31492 28
25194 31491 31493 28
25195 31491 31494 28
25196 31491 31495 28
25197 31496 31497 28
25198 31496 31498 28
25199 31496 31499 28
25200 31496 31500 28
25201 31501 31502 28
25202 31501 31503 28
25203 31501 31504 28
25204 31501 31505 28
25205 31506 31507 28
25206 31506 31508 28
25207 31506 31509 28
25208 31506 31510 28
25209 31511 31512 28
25210 31511 31513 28
25211 31511 31514 28
25212 31511 31515 28
25213 31516 31517 28
25214 31516 31518 28
25215 31516 31519 28
25216 31516 31520 28
25217 31521 31522 28
25218 31521 31523 28
25219 31521 31524 28
25220 31521 31525 28
25221 31526 31527 28
25222 31526 31528 28
25223 31526 31529 28
25224 31526 31530 28
25225 31531 31532 28
25226 31531 31533 28
25227 31531 31534 28
25228 31531 31535 28
25229 31536 31537 28
25230 31536 31538 28
25231 31536 31539 28
25232 31536 31540 28
25233 31541 31542 28
25234 31541 31543 28
25235 31541 31544 28
25236 31541 31545 28
25237 31546 31547 28
25238 31546 31548 28
25239 31546 31549 28
25240 31546 31550 28
25241 31551 31552 28
25242 31551 31553 28
25243 31551 31554 28
25244 31551 31555 28
25245 31556 31557 28
25246 31556 31558 28
25247 31556 31559 28
25248 31556 31560 28
25249 31561 31562 28
25250 31561 31563 28
25251 31561 31564 28
25252 31561 31565 28
25253 31566 31567 28
25254 31566 31568 28
25255 31566 31569 28
25256 31566 31570 28
25257 31571 31572 28
25258 31571 31573 28
25259 31571 31574 28
25260 31571 31575 28
25261 31576 31577 28
25262 31576 31578 28
25263 31576 31579 28
25264 31576 31580 28
25265 31581 31582 28
25266 31581 31583 28
25267 31581 31584 28
25268 31581 31585 28
25269 31586 31587 28
25270 31586 31588 28
25271 31586 31589 28
25272 31586 31590 28
25273 31591 31592 28
25274 31591 31593 28
25275 31591 31594 28
25276 31591 31595 28
25277 31596 31597 28
25278 31596 31598 28
25279 31596 31599 28
25280 31596 31600 28
25281 31601 31602 28
25282 31601 31603 28
25283 31601 31604 28
25284 31601 31605 28
25285 31606 31607 28
25286 31606 31608 28
25287 31606 31609 28
25288 31606 31610 28
25289 31611 31612 28
25290 31611 31613 28
25291 31611 31614 28
25292 31611 31615 28
25293 31616 31617 28
25294 31616 31618 28
25295 31616 31619 28
25296 31616 31620 28
25297 31621 31622 28
25298 31621 31623 28
25299 31621 31624 28
25300 31621 31625 28
25301 31626 31627 28
25302 31626 31628 28
25303 31626 31629 28
25304 31626 31630 28
25305 31631 31632 28
25306 31631 31633 28
25307 31631 31634 28
25308 31631 31635 28
25309 31636 31637 28
25310 31636 31638 28
25311 31636 31639 28
25312 31636 31640 28
25313 31641 31642 28
25314 31641 31643 28
25315 31641 31644 28
25316 31641 31645 28
25317 31646 31647 28
25318 31646 31648 28
25319 31646 31649 28
25320 31646 31650 28
25321 31651 31652 28
25322 31651 31653 28
25323 31651 31654 28
25324 31651 31655 28
25325 31656 31657 28
25326 31656 31658 28
25327 31656 31659 28
25328 31656 31660 28
25329 31661 31662 28
25330 31661 31663 28
25331 31661 31664 28
25332 31661 31665 28
25333 31666 31667 28
25334 31666 31668 28
25335 31666 31669 28
25336 31666 31670 28
25337 31671 31672 28
25338 31671 31673 28
25339 31671 31674 28
25340 31671 31675 28
25341 31676 31677 28
25342 31676 31678 28
25343 31676 31679 28
25344 31676 31680 28
25345 31681 31682 28
25346 31681 31683 28
25347 31681 31684 28
25348 31681 31685 28
25349 31686 31687 28
25350 31686 31688 28
25351 31686 31689 28
25352 31686 31690 28
25353 31691 31692 28
25354 31691 31693 28
25355 31691 31694 28
25356 31691 31695 28
25357 31696 31697 28
25358 31696 31698 28
25359 31696 31699 28
25360 31696 31700 28
25361 31701 31702 28
25362 31701 31703 28
25363 31701 31704 28
25364 31701 31705 28
25365 31706 31707 28
25366 31706 31708 28
25367 31706 31709 28
25368 31706 31710 28
25369 31711 31712 28
25370 31711 31713 28
25371 31711 31714 28
25372 31711 31715 28
25373 31716 31717 28
25374 31716 31718 28
25375 31716 31719 28
25376 31716 31720 28
25377 31721 31722 28
25378 31721 31723 28
25379 31721 31724 28
25380 31721 31725 28
25381 31726 31727 28
25382 31726 31728 28
25383 31726 31729 28
25384 31726 31730 28
25385 31731 31732 28
25386 31731 31733 28
25387 31731 31734 28
25388 31731 31735 28
25389 31736 31737 28
25390 31736 31738 28
25391 31736 31739 28
25392 31736 31740 28
25393 31741 31742 28
25394 31741 31743 28
25395 31741 31744 28
25396 31741 31745 28
25397 31746 31747 28
25398 31746 31748 28
25399 31746 31749 28
25400 31746 31750 28
25401 31751 31752 28
25402 31751 31753 28
25403 31751 31754 28
25404 31751 31755 28
25405 31756 31757 28
25406 31756 31758 28
25407 31756 31759 28
25408 31756 31760 28
25409 31761 31762 28
25410 31761 31763 28
25411 31761 31764 28
25412 31761 31765 28
25413 31766 31767 28
25414 31766 31768 28
25415 31766 31769 28
25416 31766 31770 28
25417 31771 31772 28
25418 31771 31773 28
25419 31771 31774 28
25420 31771 31775 28
25421 31776 31777 28
25422 31776 31778 28
25423 31776 31779 28
25424 31776 31780 28
25425 31781 31782 28
25426 31781 31783 28
25427 31781 31784 28
25428 31781 31785 28
25429 31786 31787 28
25430 31786 31788 28
25431 31786 31789 28
25432 31786 31790 28
25433 31791 31792 28
25434 31791 31793 28
25435 31791 31794 28
25436 31791 31795 28
25437 31796 31797 28
25438 31796 31798 28
25439 31796 31799 28
25440 31796 31800 28
25441 31801 31802 28
25442 31801 31803 28
25443 31801 31804 28
25444 31801 31805 28
25445 31806 31807 28
25446 31806 31808 28
25447 31806 31809 28
25448 31806 31810 28
25449 31811 31812 28
25450 31811 31813 28
25451 31811 31814 28
25452 31811 31815 28
25453 31816 31817 28
25454 31816 31818 28
25455 31816 31819 28
25456 31816 31820 28
25457 31821 31822 28
25458 31821 31823 28
25459 31821 31824 28
25460 31821 31825 28
25461 31826 31827 28
25462 31826 31828 28
25463 31826 31829 28
25464 31826 31830 28
25465 31831 31832 28
25466 31831 31833 28
25467 31831 31834 28
25468 31831 31835 28
25469 31836 31837 28
25470 31836 31838 28
25471 31836 31839 28
25472 31836 31840 28
25473 31841 31842 28
25474 31841 31843 28
25475 31841 31844 28
25476 31841 31845 28
25477 31846 31847 28
25478 31846 31848 28
25479 31846 31849 28
25480 31846 31850 28
25481 31851 31852 28
25482 31851 31853 28
25483 31851 31854 28
25484 31851 31855 28
25485 31856 31857 28
25486 31856 31858 28
25487 31856 31859 28
25488 31856 31860 28
25489 31861 31862 28
25490 31861 31863 28
25491 31861 31864 28
25492 31861 31865 28
25493 31866 31867 28
25494 31866 31868 28
25495 31866 31869 28
25496 31866 31870 28
25497 31871 31872 28
25498 31871 31873 28
25499 31871 31874 28
25500 31871 31875 28
25501 31876 31877 28
25502 31876 31878 28
25503 31876 31879 28
25504 31876 31880 28
25505 31881 31882 28
25506 31881 31883 28
25507 31881 31884 28
25508 31881 31885 28
25509 31886 31887 28
25510 31886 31888 28
25511 31886 31889 28
25512 31886 31890 28
25513 31891 31892 28
25514 31891 31893 28
25515 31891 31894 28
25516 31891 31895 28
25517 31896 31897 28
25518 31896 31898 28
25519 31896 31899 28
25520 31896 31900 28
25521 31901 31902 28
25522 31901 31903 28
25523 31901 31904 28
25524 31901 31905 28
25525 31906 31907 28
25526 31906 31908 28
25527 31906 31909 28
25528 31906 31910 28
25529 31911 31912 28
25530 31911 31913 28
25531 31911 31914 28
25532 31911 31915 28
25533 31916 31917 28
25534 31916 31918 28
25535 31916 31919 28
25536 31916 31920 28
25537 31921 31922 28
25538 31921 31923 28
25539 31921 31924 28
25540 31921 31925 28
25541 31926 31927 28
25542 31926 31928 28
25543 31926 31929 28
25544 31926 31930 28
25545 31931 31932 28
25546 31931 31933 28
25547 31931 31934 28
25548 31931 31935 28
25549 31936 31937 28
25550 31936 31938 28
25551 31936 31939 28
25552 31936 31940 28
25553 31941 31942 28
25554 31941 31943 28
25555 31941 31944 28
25556 31941 31945 28
25557 31946 31947 28
25558 31946 31948 28
25559 31946 31949 28
25560 31946 31950 28
25561 31951 31952 28
25562 31951 31953 28
25563 31951 31954 28
25564 31951 31955 28
25565 31956 31957 28
25566 31956 31958 28
25567 31956 31959 28
25568 31956 31960 28
25569 31961 31962 28
25570 31961 31963 28
25571 31961 31964 28
25572 31961 31965 28
25573 31966 31967 28
25574 31966 31968 28
25575 31966 31969 28
25576 31966 31970 28
25577 31971 31972 28
25578 31971 31973 28
25579 31971 31974 28
25580 31971 31975 28
25581 31976 31977 28
25582 31976 31978 28
25583 31976 31979 28
25584 31976 31980 28
25585 31981 31982 28
25586 31981 31983 28
25587 31981 31984 28
25588 31981 31985 28
25589 31986 31987 28
25590 31986 31988 28
25591 31986 31989 28
25592 31986 31990 28
25593 31991 31992 28
25594 31991 31993 28
25595 31991 31994 28
25596 31991 31995 28
25597 31996 31997 28
25598 31996 31998 28
25599 31996 31999 28
25600 31996 32000 28
25601 32001 32002 28
25602 32001 32003 28
25603 32001 32004 28
25604 32001 32005 28
25605 32006 32007 28
25606 32006 32008 28
25607 32006 32009 28
25608 32006 32010 28
25609 32011 32012 28
25610 32011 32013 28
25611 32011 32014 28
25612 32011 32015 28
25613 32016 32017 28
25614 32016 32018 28
25615 32016 32019 28
25616 32016 32020 28
25617 32021 32022 28
25618 32021 32023 28
25619 32021 32024 28
25620 32021 32025 28
25621 32026 32027 28
25622 32026 32028 28
25623 32026 32029 28
25624 32026 32030 28
25625 32031 32032 28
25626 32031 32033 28
25627 32031 32034 28
25628 32031 32035 28
25629 32036 32037 28
25630 32036 32038 28
25631 32036 32039 28
25632 32036 32040 28
25633 32041 32042 28
25634 32041 32043 28
25635 32041 32044 28
25636 32041 32045 28
25637 32046 32047 28
25638 32046 32048 28
25639 32046 32049 28
25640 32046 32050 28
25641 32051 32052 28
25642 32051 32053 28
25643 32051 32054 28
25644 32051 32055 28
25645 32056 32057 28
25646 32056 32058 28
25647 32056 32059 28
25648 32056 32060 28
25649 32061 32062 28
25650 32061 32063 28
25651 32061 32064 28
25652 32061 32065 28
25653 32066 32067 28
25654 32066 32068 28
25655 32066 32069 28
25656 32066 32070 28
25657 32071 32072 28
25658 32071 32073 28
25659 32071 32074 28
25660 32071 32075 28
25661 32076 32077 28
25662 32076 32078 28
25663 32076 32079 28
25664 32076 32080 28
25665 32081 32082 28
25666 32081 32083 28
25667 32081 32084 28
25668 32081 32085 28
25669 32086 32087 28
25670 32086 32088 28
25671 32086 32089 28
25672 32086 32090 28
25673 32091 32092 28
25674 32091 32093 28
25675 32091 32094 28
25676 32091 32095 28
25677 32096 32097 28
25678 32096 32098 28
25679 32096 32099 28
25680 32096 32100 28
25681 32101 32102 28
25682 32101 32103 28
25683 32101 32104 28
25684 32101 32105 28
25685 32106 32107 28
25686 32106 32108 28
25687 32106 32109 28
25688 32106 32110 28
25689 32111 32112 28
25690 32111 32113 28
25691 32111 32114 28
25692 32111 32115 28
25693 32116 32117 28
25694 32116 32118 28
25695 32116 32119 28
25696 32116 32120 28
25697 32121 32122 28
25698 32121 32123 28
25699 32121 32124 28
25700 32121 32125 28
25701 32126 32127 28
25702 32126 32128 28
25703 32126 32129 28
25704 32126 32130 28
25705 32131 32132 28
25706 32131 32133 28
25707 32131 32134 28
25708 32131 32135 28
25709 32136 32137 28
25710 32136 32138 28
25711 32136 32139 28
25712 32136 32140 28
25713 32141 32142 28
25714 32141 32143 28
25715 32141 32144 28
25716 32141 32145 28
25717 32146 32147 28
25718 32146 32148 28
25719 32146 32149 28
25720 32146 32150 28
25721 32151 32152 28
25722 32151 32153 28
25723 32151 32154 28
25724 32151 32155 28
25725 32156 32157 28
25726 32156 32158 28
25727 32156 32159 28
25728 32156 32160 28
25729 32161 32162 28
25730 32161 32163 28
25731 32161 32164 28
25732 32161 32165 28
25733 32166 32167 28
25734 32166 32168 28
25735 32166 32169 28
25736 32166 32170 28
25737 32171 32172 28
25738 32171 32173 28
25739 32171 32174 28
25740 32171 32175 28
25741 32176 32177 28
25742 32176 32178 28
25743 32176 32179 28
25744 32176 32180 28
25745 32181 32182 28
25746 32181 32183 28
25747 32181 32184 28
25748 32181 32185 28
25749 32186 32187 28
25750 32186 32188 28
25751 32186 32189 28
25752 32186 32190 28
25753 32191 32192 28
25754 32191 32193 28
25755 32191 32194 28
25756 32191 32195 28
25757 32196 32197 28
25758 32196 32198 28
25759 32196 32199 28
25760 32196 32200 28
25761 32201 32202 28
25762 32201 32203 28
25763 32201 32204 28
25764 32201 32205 28
25765 32206 32207 28
25766 32206 32208 28
25767 32206 32209 28
25768 32206 32210 28
25769 32211 32212 28
25770 32211 32213 28
25771 32211 32214 28
25772 32211 32215 28
25773 32216 32217 28
25774 32216 32218 28
25775 32216 32219 28
25776 32216 32220 28
25777 32221 32222 28
25778 32221 32223 28
25779 32221 32224 28
25780 32221 32225 28
25781 32226 32227 28
25782 32226 32228 28
25783 32226 32229 28
25784 32226 32230 28
25785 32231 32232 28
25786 32231 32233 28
25787 32231 32234 28
25788 32231 32235 28
25789 32236 32237 28
25790 32236 32238 28
25791 32236 32239 28
25792 32236 32240 28
25793 32241 32242 28
25794 32241 32243 28
25795 32241 32244 28
25796 32241 32245 28
25797 32246 32247 28
25798 32246 32248 28
25799 32246 32249 28
25800 32246 32250 28
25801 32251 32252 28
25802 32251 32253 28
25803 32251 32254 28
25804 32251 32255 28
25805 32256 32257 28
25806 32256 32258 28
25807 32256 32259 28
25808 32256 32260 28
25809 32261 32262 28
25810 32261 32263 28
25811 32261 32264 28
25812 32261 32265 28
25813 32266 32267 28
25814 32266 32268 28
25815 32266 32269 28
25816 32266 32270 28
25817 32271 32272 28
25818 32271 32273 28
25819 32271 32274 28
25820 32271 32275 28
25821 32276 32277 28
25822 32276 32278 28
25823 32276 32279 28
25824 32276 32280 28
25825 32281 32282 28
25826 32281 32283 28
25827 32281 32284 28
25828 32281 32285 28
25829 32286 32287 28
25830 32286 32288 28
25831 32286 32289 28
25832 32286 32290 28
25833 32291 32292 28
25834 32291 32293 28
25835 32291 32294 28
25836 32291 32295 28
25837 32296 32297 28
25838 32296 32298 28
25839 32296 32299 28
25840 32296 32300 28
25841 32301 32302 28
25842 32301 32303 28
25843 32301 32304 28
25844 32301 32305 28
25845 32306 32307 28
25846 32306 32308 28
25847 32306 32309 28
25848 32306 32310 28
25849 32311 32312 28
25850 32311 32313 28
25851 32311 32314 28
25852 32311 32315 28
25853 32316 32317 28
25854 32316 32318 28
25855 32316 32319 28
25856 32316 32320 28
25857 32321 32322 28
25858 32321 32323 28
25859 32321 32324 28
25860 32321 32325 28
25861 32326 32327 28
25862 32326 32328 28
25863 32326 32329 28
25864 32326 32330 28
25865 32331 32332 28
25866 32331 32333 28
25867 32331 32334 28
25868 32331 32335 28
25869 32336 32337 28
25870 32336 32338 28
25871 32336 32339 28
25872 32336 32340 28
25873 32341 32342 28
25874 32341 32343 28
25875 32341 32344 28
25876 32341 32345 28
25877 32346 32347 28
25878 32346 32348 28
25879 32346 32349 28
25880 32346 32350 28
25881 32351 32352 28
25882 32351 32353 28
25883 32351 32354 28
25884 32351 32355 28
25885 32356 32357 28
25886 32356 32358 28
25887 32356 32359 28
25888 32356 32360 28
25889 32361 32362 28
25890 32361 32363 28
25891 32361 32364 28
25892 32361 32365 28
25893 32366 32367 28
25894 32366 32368 28
25895 32366 32369 28
25896 32366 32370 28
25897 32371 32372 28
25898 32371 32373 28
25899 32371 32374 28
25900 32371 32375 28
25901 32376 32377 28
25902 32376 32378 28
25903 32376 32379 28
25904 32376 32380 28
25905 32381 32382 28
25906 32381 32383 28
25907 32381 32384 28
25908 32381 32385 28
25909 32386 32387 28
25910 32386 32388 28
25911 32386 32389 28
25912 32386 32390 28
25913 32391 32392 28
25914 32391 32393 28
25915 32391 32394 28
25916 32391 32395 28
25917 32396 32397 28
25918 32396 32398 28
25919 32396 32399 28
25920 32396 32400 28
25921 32401 32402 28
25922 32401 32403 28
25923 32401 32404 28
25924 32401 32405 28
25925 32406 32407 28
25926 32406 32408 28
25927 32406 32409 28
25928 32406 32410 28
25929 32411 32412 28
25930 32411 32413 28
25931 32411 32414 28
25932 32411 32415 28
25933 32416 32417 28
25934 32416 32418 28
25935 32416 32419 28
25936 32416 32420 28
25937 32421 32422 28
25938 32421 32423 28
25939 32421 32424 28
25940 32421 32425 28
25941 32426 32427 28
25942 32426 32428 28
25943 32426 32429 28
25944 32426 32430 28
25945 32431 32432 28
25946 32431 32433 28
25947 32431 32434 28
25948 32431 32435 28
25949 32436 32437 28
25950 32436 32438 28
25951 32436 32439 28
25952 32436 32440 28
25953 32441 32442 28
25954 32441 32443 28
25955 32441 32444 28
25956 32441 32445 28
25957 32446 32447 28
25958 32446 32448 28
25959 32446 32449 28
25960 32446 32450 28
25961 32451 32452 28
25962 32451 32453 28
25963 32451 32454 28
25964 32451 32455 28
25965 32456 32457 28
25966 32456 32458 28
25967 32456 32459 28
25968 32456 32460 28
25969 32461 32462 28
25970 32461 32463 28
25971 32461 32464 28
25972 32461 32465 28
25973 32466 32467 28
25974 32466 32468 28
25975 32466 32469 28
25976 32466 32470 28
25977 32471 32472 28
25978 32471 32473 28
25979 32471 32474 28
25980 32471 32475 28
25981 32476 32477 28
25982 32476 32478 28
25983 32476 32479 28
25984 32476 32480 28
25985 32481 32482 28
25986 32481 32483 28
25987 32481 32484 28
25988 32481 32485 28
25989 32486 32487 28
25990 32486 32488 28
25991 32486 32489 28
25992 32486 32490 28
25993 32491 32492 28
25994 32491 32493 28
25995 32491 32494 28
25996 32491 32495 28
25997 32496 32497 28
25998 32496 32498 28
25999 32496 32499 28
26000 32496 32500 28
26001 32501 32502 28
26002 32501 32503 28
26003 32501 32504 28
26004 32501 32505 28
26005 32506 32507 28
26006 32506 32508 28
26007 32506 32509 28
26008 32506 32510 28
26009 32511 32512 28
26010 32511 32513 28
26011 32511 32514 28
26012 32511 32515 28
26013 32516 32517 28
26014 32516 32518 28
26015 32516 32519 28
26016 32516 32520 28
26017 32521 32522 28
26018 32521 32523 28
26019 32521 32524 28
26020 32521 32525 28
26021 32526 32527 28
26022 32526 32528 28
26023 32526 32529 28
26024 32526 32530 28
26025 32531 32532 28
26026 32531 32533 28
26027 32531 32534 28
26028 32531 32535 28
26029 32536 32537 28
26030 32536 32538 28
26031 32536 32539 28
26032 32536 32540 28
26033 32541 32542 28
26034 32541 32543 28
26035 32541 32544 28
26036 32541 32545 28
26037 32546 32547 28
26038 32546 32548 28
26039 32546 32549 28
26040 32546 32550 28
26041 32551 32552 28
26042 32551 32553 28
26043 32551 32554 28
26044 32551 32555 28
26045 32556 32557 28
26046 32556 32558 28
26047 32556 32559 28
26048 32556 32560 28
26049 32561 32562 28
26050 32561 32563 28
26051 32561 32564 28
26052 32561 32565 28
26053 32566 32567 28
26054 32566 32568 28
26055 32566 32569 28
26056 32566 32570 28
26057 32571 32572 28
26058 32571 32573 28
26059 32571 32574 28
26060 32571 32575 28
26061 32576 32577 28
26062 32576 32578 28
26063 32576 32579 28
26064 32576 32580 28
26065 32581 32582 28
26066 32581 32583 28
26067 32581 32584 28
26068 32581 32585 28
26069 32586 32587 28
26070 32586 32588 28
26071 32586 32589 28
26072 32586 32590 28
26073 32591 32592 28
26074 32591 32593 28
26075 32591 32594 28
26076 32591 32595 28
26077 32596 32597 28
26078 32596 32598 28
26079 32596 32599 28
26080 32596 32600 28
26081 32601 32602 28
26082 32601 32603 28
26083 32601 32604 28
26084 32601 32605 28
26085 32606 32607 28
26086 32606 32608 28
26087 32606 32609 28
26088 32606 32610 28
26089 32611 32612 28
26090 32611 32613 28
26091 32611 32614 28
26092 32611 32615 28
26093 32616 32617 28
26094 32616 32618 28
26095 32616 32619 28
26096 32616 32620 28
26097 32621 32622 28
26098 32621 32623 28
26099 32621 32624 28
26100 32621 32625 28
26101 32626 32627 28
26102 32626 32628 28
26103 32626 32629 28
26104 32626 32630 28
26105 32631 32632 28
26106 32631 32633 28
26107 32631 32634 28
26108 32631 32635 28
26109 32636 32637 28
26110 32636 32638 28
26111 32636 32639 28
26112 32636 32640 28
26113 32641 32642 28
26114 32641 32643 28
26115 32641 32644 28
26116 32641 32645 28
26117 32646 32647 28
26118 32646 32648 28
26119 32646 32649 28
26120 32646 32650 28
26121 32651 32652 28
26122 32651 32653 28
26123 32651 32654 28
26124 32651 32655 28
26125 32656 32657 28
26126 32656 32658 28
26127 32656 32659 28
26128 32656 32660 28
26129 32661 32662 28
26130 32661 32663 28
26131 32661 32664 28
26132 32661 32665 28
26133 32666 32667 28
26134 32666 32668 28
26135 32666 32669 28
26136 32666 32670 28
26137 32671 32672 28
26138 32671 32673 28
26139 32671 32674 28
26140 32671 32675 28
26141 32676 32677 28
26142 32676 32678 28
26143 32676 32679 28
26144 32676 32680 28
26145 32681 32682 28
26146 32681 32683 28
26147 32681 32684 28
26148 32681 32685 28
26149 32686 32687 28
26150 32686 32688 28
26151 32686 32689 28
26152 32686 32690 28
26153 32691 32692 28
26154 32691 32693 28
26155 32691 32694 28
26156 32691 32695 28
26157 32696 32697 28
26158 32696 32698 28
26159 32696 32699 28
26160 32696 32700 28
26161 32701 32702 28
26162 32701 32703 28
26163 32701 32704 28
26164 32701 32705 28
26165 32706 32707 28
26166 32706 32708 28
26167 32706 32709 28
26168 32706 32710 28
26169 32711 32712 28
26170 32711 32713 28
26171 32711 32714 28
26172 32711 32715 28
26173 32716 32717 28
26174 32716 32718 28
26175 32716 32719 28
26176 32716 32720 28
26177 32721 32722 28
26178 32721 32723 28
26179 32721 32724 28
26180 32721 32725 28
26181 32726 32727 28
26182 32726 32728 28
26183 32726 32729 28
26184 32726 32730 28
26185 32731 32732 28
26186 32731 32733 28
26187 32731 32734 28
26188 32731 32735 28
26189 32736 32737 28
26190 32736 32738 28
26191 32736 32739 28
26192 32736 32740 28
26193 32741 32742 28
26194 32741 32743 28
26195 32741 32744 28
26196 32741 32745 28
26197 32746 32747 28
26198 32746 32748 28
26199 32746 32749 28
26200 32746 32750 28
26201 32751 32752 28
26202 32751 32753 28
26203 32751 32754 28
26204 32751 32755 28
26205 32756 32757 28
26206 32756 32758 28
26207 32756 32759 28
26208 32756 32760 28
26209 32761 32762 28
26210 32761 32763 28
26211 32761 32764 28
26212 32761 32765 28
26213 32766 32767 28
26214 32766 32768 28
26215 32766 32769 28
26216 32766 32770 28
26217 32771 32772 28
26218 32771 32773 28
26219 32771 32774 28
26220 32771 32775 28
26221 32776 32777 28
26222 32776 32778 28
26223 32776 32779 28
26224 32776 32780 28
26225 32781 32782 28
26226 32781 32783 28
26227 32781 32784 28
26228 32781 32785 28
26229 32786 32787 28
26230 32786 32788 28
26231 32786 32789 28
26232 32786 32790 28
26233 32791 32792 28
26234 32791 32793 28
26235 32791 32794 28
26236 32791 32795 28
26237 32796 32797 28
26238 32796 32798 28
26239 32796 32799 28
26240 32796 32800 28
26241 32801 32802 28
26242 32801 32803 28
26243 32801 32804 28
26244 32801 32805 28
26245 32806 32807 28
26246 32806 32808 28
26247 32806 32809 28
26248 32806 32810 28
26249 32811 32812 28
26250 32811 32813 28
26251 32811 32814 28
26252 32811 32815 28
26253 32816 32817 28
26254 32816 32818 28
26255 32816 32819 28
26256 32816 32820 28
26257 32821 32822 28
26258 32821 32823 28
26259 32821 32824 28
26260 32821 32825 28
26261 32826 32827 28
26262 32826 32828 28
26263 32826 32829 28
26264 32826 32830 28
26265 32831 32832 28
26266 32831 32833 28
26267 32831 32834 28
26268 32831 32835 28
26269 32836 32837 28
26270 32836 32838 28
26271 32836 32839 28
26272 32836 32840 28
26273 32841 32842 28
26274 32841 32843 28
26275 32841 32844 28
26276 32841 32845 28
26277 32846 32847 28
26278 32846 32848 28
26279 32846 32849 28
26280 32846 32850 28
26281 32851 32852 28
26282 32851 32853 28
26283 32851 32854 28
26284 32851 32855 28
26285 32856 32857 28
26286 32856 32858 28
26287 32856 32859 28
26288 32856 32860 28
26289 32861 32862 28
26290 32861 32863 28
26291 32861 32864 28
26292 32861 32865 28
26293 32866 32867 28
26294 32866 32868 28
26295 32866 32869 28
26296 32866 32870 28
26297 32871 32872 28
26298 32871 32873 28
26299 32871 32874 28
26300 32871 32875 28
26301 32876 32877 28
26302 32876 32878 28
26303 32876 32879 28
26304 32876 32880 28
26305 32881 32882 28
26306 32881 32883 28
26307 32881 32884 28
26308 32881 32885 28
26309 32886 32887 28
26310 32886 32888 28
26311 32886 32889 28
26312 32886 32890 28
26313 32891 32892 28
26314 32891 32893 28
26315 32891 32894 28
26316 32891 32895 28
26317 32896 32897 28
26318 32896 32898 28
26319 32896 32899 28
26320 32896 32900 28
26321 32901 32902 28
26322 32901 32903 28
26323 32901 32904 28
26324 32901 32905 28
26325 32906 32907 28
26326 32906 32908 28
26327 32906 32909 28
26328 32906 32910 28
26329 32911 32912 28
26330 32911 32913 28
26331 32911 32914 28
26332 32911 32915 28
26333 32916 32917 28
26334 32916 32918 28
26335 32916 32919 28
26336 32916 32920 28
26337 32921 32922 28
26338 32921 32923 28
26339 32921 32924 28
26340 32921 32925 28
26341 32926 32927 28
26342 32926 32928 28
26343 32926 32929 28
26344 32926 32930 28
26345 32931 32932 28
26346 32931 32933 28
26347 32931 32934 28
26348 32931 32935 28
26349 32936 32937 28
26350 32936 32938 28
26351 32936 32939 28
26352 32936 32940 28
26353 32941 32942 28
26354 32941 32943 28
26355 32941 32944 28
26356 32941 32945 28
26357 32946 32947 28
26358 32946 32948 28
26359 32946 32949 28
26360 32946 32950 28
26361 32951 32952 28
26362 32951 32953 28
26363 32951 32954 28
26364 32951 32955 28
26365 32956 32957 28
26366 32956 32958 28
26367 32956 32959 28
26368 32956 32960 28
26369 32961 32962 28
26370 32961 32963 28
26371 32961 32964 28
26372 32961 32965 28
26373 32966 32967 28
26374 32966 32968 28
26375 32966 32969 28
26376 32966 32970 28
26377 32971 32972 28
26378 32971 32973 28
26379 32971 32974 28
26380 32971 32975 28
26381 32976 32977 28
26382 32976 32978 28
26383 32976 32979 28
26384 32976 32980 28
26385 32981 32982 28
26386 32981 32983 28
26387 32981 32984 28
26388 32981 32985 28
26389 32986 32987 28
26390 32986 32988 28
26391 32986 32989 28
26392 32986 32990 28
26393 32991 32992 28
26394 32991 32993 28
26395 32991 32994 28
26396 32991 32995 28
26397 32996 32997 28
26398 32996 32998 28
26399 32996 32999 28
26400 32996 33000 28
26401 33001 33002 28
26402 33001 33003 28
26403 33001 33004 28
26404 33001 33005 28
26405 33006 33007 28
26406 33006 33008 28
26407 33006 33009 28
26408 33006 33010 28
26409 33011 33012 28
26410 33011 33013 28
26411 33011 33014 28
26412 33011 33015 28
26413 33016 33017 28
26414 33016 33018 28
26415 33016 33019 28
26416 33016 33020 28
26417 33021 33022 28
26418 33021 33023 28
26419 33021 33024 28
26420 33021 33025 28
26421 33026 33027 28
26422 33026 33028 28
26423 33026 33029 28
26424 33026 33030 28
26425 33031 33032 28
26426 33031 33033 28
26427 33031 33034 28
26428 33031 33035 28
26429 33036 33037 28
26430 33036 33038 28
26431 33036 33039 28
26432 33036 33040 28
26433 33041 33042 28
26434 33041 33043 28
26435 33041 33044 28
26436 33041 33045 28
26437 33046 33047 28
26438 33046 33048 28
26439 33046 33049 28
26440 33046 33050 28
26441 33051 33052 28
26442 33051 33053 28
26443 33051 33054 28
26444 33051 33055 28
26445 33056 33057 28
26446 33056 33058 28
26447 33056 33059 28
26448 33056 33060 28
26449 33061 33062 28
26450 33061 33063 28
26451 33061 33064 28
26452 33061 33065 28
26453 33066 33067 28
26454 33066 33068 28
26455 33066 33069 28
26456 33066 33070 28
26457 33071 33072 28
26458 33071 33073 28
26459 33071 33074 28
26460 33071 33075 28
26461 33076 33077 28
26462 33076 33078 28
26463 33076 33079 28
26464 33076 33080 28
26465 33081 33082 28
26466 33081 33083 28
26467 33081 33084 28
26468 33081 33085 28
26469 33086 33087 28
26470 33086 33088 28
26471 33086 33089 28
26472 33086 33090 28
26473 33091 33092 28
26474 33091 33093 28
26475 33091 33094 28
26476 33091 33095 28
26477 33096 33097 28
26478 33096 33098 28
26479 33096 33099 28
26480 33096 33100 28
26481 33101 33102 28
26482 33101 33103 28
26483 33101 33104 28
26484 33101 33105 28
26485 33106 33107 28
26486 33106 33108 28
26487 33106 33109 28
26488 33106 33110 28
26489 33111 33112 28
26490 33111 33113 28
26491 33111 33114 28
26492 33111 33115 28
26493 33116 33117 28
26494 33116 33118 28
26495 33116 33119 28
26496 33116 33120 28
26497 33121 33122 28
26498 33121 33123 28
26499 33121 33124 28
26500 33121 33125 28
26501 33126 33127 28
26502 33126 33128 28
26503 33126 33129 28
26504 33126 33130 28
26505 33131 33132 28
26506 33131 33133 28
26507 33131 33134 28
26508 33131 33135 28
26509 33136 33137 28
26510 33136 33138 28
26511 33136 33139 28
26512 33136 33140 28
26513 33141 33142 28
26514 33141 33143 28
26515 33141 33144 28
26516 33141 33145 28
26517 33146 33147 28
26518 33146 33148 28
26519 33146 33149 28
26520 33146 33150 28
26521 33151 33152 28
26522 33151 33153 28
26523 33151 33154 28
26524 33151 33155 28
26525 33156 33157 28
26526 33156 33158 28
26527 33156 33159 28
26528 33156 33160 28
26529 33161 33162 28
26530 33161 33163 28
26531 33161 33164 28
26532 33161 33165 28
26533 33166 33167 28
26534 33166 33168 28
26535 33166 33169 28
26536 33166 33170 28
26537 33171 33172 28
26538 33171 33173 28
26539 33171 33174 28
26540 33171 33175 28
26541 33176 33177 28
26542 33176 33178 28
26543 33176 33179 28
26544 33176 33180 28
26545 33181 33182 28
26546 33181 33183 28
26547 33181 33184 28
26548 33181 33185 28
26549 33186 33187 28
26550 33186 33188 28
26551 33186 33189 28
26552 33186 33190 28
26553 33191 33192 28
26554 33191 33193 28
26555 33191 33194 28
26556 33191 33195 28
26557 33196 33197 28
26558 33196 33198 28
26559 33196 33199 28
26560 33196 33200 28
26561 33201 33202 28
26562 33201 33203 28
26563 33201 33204 28
26564 33201 33205 28
26565 33206 33207 28
26566 33206 33208 28
26567 33206 33209 28
26568 33206 33210 28
26569 33211 33212 28
26570 33211 33213 28
26571 33211 33214 28
26572 33211 33215 28
26573 33216 33217 28
26574 33216 33218 28
26575 33216 33219 28
26576 33216 33220 28
26577 33221 33222 28
26578 33221 33223 28
26579 33221 33224 28
26580 33221 33225 28
26581 33226 33227 28
26582 33226 33228 28
26583 33226 33229 28
26584 33226 33230 28
26585 33231 33232 28
26586 33231 33233 28
26587 33231 33234 28
26588 33231 33235 28
26589 33236 33237 28
26590 33236 33238 28
26591 33236 33239 28
26592 33236 33240 28
26593 33241 33242 28
26594 33241 33243 28
26595 33241 33244 28
26596 33241 33245 28
26597 33246 33247 28
26598 33246 33248 28
26599 33246 33249 28
26600 33246 33250 28
26601 33251 33252 28
26602 33251 33253 28
26603 33251 33254 28
26604 33251 33255 28
26605 33256 33257 28
26606 33256 33258 28
26607 33256 33259 28
26608 33256 33260 28
26609 33261 33262 28
26610 33261 33263 28
26611 33261 33264 28
26612 33261 33265 28
26613 33266 33267 28
26614 33266 33268 28
26615 33266 33269 28
26616 33266 33270 28
26617 33271 33272 28
26618 33271 33273 28
26619 33271 33274 28
26620 33271 33275 28
26621 33276 33277 28
26622 33276 33278 28
26623 33276 33279 28
26624 33276 33280 28
26625 33281 33282 28
26626 33281 33283 28
26627 33281 33284 28
26628 33281 33285 28
26629 33286 33287 28
26630 33286 33288 28
26631 33286 33289 28
26632 33286 33290 28
26633 33291 33292 28
26634 33291 33293 28
26635 33291 33294 28
26636 33291 33295 28
26637 33296 33297 28
26638 33296 33298 28
26639 33296 33299 28
26640 33296 33300 28
26641 33301 33302 28
26642 33301 33303 28
26643 33301 33304 28
26644 33301 33305 28
26645 33306 33307 28
26646 33306 33308 28
26647 33306 33309 28
26648 33306 33310 28
26649 33311 33312 28
26650 33311 33313 28
26651 33311 33314 28
26652 33311 33315 28
26653 33316 33317 28
26654 33316 33318 28
26655 33316 33319 28
26656 33316 33320 28
26657 33321 33322 28
26658 33321 33323 28
26659 33321 33324 28
26660 33321 33325 28
26661 33326 33327 28
26662 33326 33328 28
26663 33326 33329 28
26664 33326 33330 28
26665 33331 33332 28
26666 33331 33333 28
26667 33331 33334 28
26668 33331 33335 28
26669 33336 33337 28
26670 33336 33338 28
26671 33336 33339 28
26672 33336 33340 28
26673 33341 33342 28
26674 33341 33343 28
26675 33341 33344 28
26676 33341 33345 28
26677 33346 33347 28
26678 33346 33348 28
26679 33346 33349 28
26680 33346 33350 28
26681 33351 33352 28
26682 33351 33353 28
26683 33351 33354 28
26684 33351 33355 28
26685 33356 33357 28
26686 33356 33358 28
26687 33356 33359 28
26688 33356 33360 28
26689 33361 33362 28
26690 33361 33363 28
26691 33361 33364 28
26692 33361 33365 28
26693 33366 33367 28
26694 33366 33368 28
26695 33366 33369 28
26696 33366 33370 28
26697 33371 33372 28
26698 33371 33373 28
26699 33371 33374 28
26700 33371 33375 28
26701 33376 33377 28
26702 33376 33378 28
26703 33376 33379 28
26704 33376 33380 28
26705 33381 33382 28
26706 33381 33383 28
26707 33381 33384 28
26708 33381 33385 28
26709 33386 33387 28
26710 33386 33388 28
26711 33386 33389 28
26712 33386 33390 28
26713 33391 33392 28
26714 33391 33393 28
26715 33391 33394 28
26716 33391 33395 28
26717 33396 33397 28
26718 33396 33398 28
26719 33396 33399 28
26720 33396 33400 28
26721 33401 33402 28
26722 33401 33403 28
26723 33401 33404 28
26724 33401 33405 28
26725 33406 33407 28
26726 33406 33408 28
26727 33406 33409 28
26728 33406 33410 28
26729 33411 33412 28
26730 33411 33413 28
26731 33411 33414 28
26732 33411 33415 28
26733 33416 33417 28
26734 33416 33418 28
26735 33416 33419 28
26736 33416 33420 28
26737 33421 33422 28
26738 33421 33423 28
26739 33421 33424 28
26740 33421 33425 28
26741 33426 33427 28
26742 33426 33428 28
26743 33426 33429 28
26744 33426 33430 28
26745 33431 33432 28
26746 33431 33433 28
26747 33431 33434 28
26748 33431 33435 28
26749 33436 33437 28
26750 33436 33438 28
26751 33436 33439 28
26752 33436 33440 28
26753 33441 33442 28
26754 33441 33443 28
26755 33441 33444 28
26756 33441 33445 28
26757 33446 33447 28
26758 33446 33448 28
26759 33446 33449 28
26760 33446 33450 28
26761 33451 33452 28
26762 33451 33453 28
26763 33451 33454 28
26764 33451 33455 28
26765 33456 33457 28
26766 33456 33458 28
26767 33456 33459 28
26768 33456 33460 28
26769 33461 33462 28
26770 33461 33463 28
26771 33461 33464 28
26772 33461 33465 28
26773 33466 33467 28
26774 33466 33468 28
26775 33466 33469 28
26776 33466 33470 28
26777 33471 33472 28
26778 33471 33473 28
26779 33471 33474 28
26780 33471 33475 28
26781 33476 33477 28
26782 33476 33478 28
26783 33476 33479 28
26784 33476 33480 28
26785 33481 33482 28
26786 33481 33483 28
26787 33481 33484 28
26788 33481 33485 28
26789 33486 33487 28
26790 33486 33488 28
26791 33486 33489 28
26792 33486 33490 28
26793 33491 33492 28
26794 33491 33493 28
26795 33491 33494 28
26796 33491 33495 28
26797 33496 33497 28
26798 33496 33498 28
26799 33496 33499 28
26800 33496 33500 28
26801 33501 33502 28
26802 33501 33503 28
26803 33501 33504 28
26804 33501 33505 28
26805 33506 33507 28
26806 33506 33508 28
26807 33506 33509 28
26808 33506 33510 28
26809 33511 33512 28
26810 33511 33513 28
26811 33511 33514 28
26812 33511 33515 28
26813 33516 33517 28
26814 33516 33518 28
26815 33516 33519 28
26816 33516 33520 28
26817 33521 33522 28
26818 33521 33523 28
26819 33521 33524 28
26820 33521 33525 28
26821 33526 33527 28
26822 33526 33528 28
26823 33526 33529 28
26824 33526 33530 28
26825 33531 33532 28
26826 33531 33533 28
26827 33531 33534 28
26828 33531 33535 28
26829 33536 33537 28
26830 33536 33538 28
26831 33536 33539 28
26832 33536 33540 28
26833 33541 33542 28
26834 33541 33543 28
26835 33541 33544 28
26836 33541 33545 28
26837 33546 33547 28
26838 33546 33548 28
26839 33546 33549 28
26840 33546 33550 28
26841 33551 33552 28
26842 33551 33553 28
26843 33551 33554 28
26844 33551 33555 28
26845 33556 33557 28
26846 33556 33558 28
26847 33556 33559 28
26848 33556 33560 28
26849 33561 33562 28
26850 33561 33563 28
26851 33561 33564 28
26852 33561 33565 28
26853 33566 33567 28
26854 33566 33568 28
26855 33566 33569 28
26856 33566 33570 28
26857 33571 33572 28
26858 33571 33573 28
26859 33571 33574 28
26860 33571 33575 28
26861 33576 33577 28
26862 33576 33578 28
26863 33576 33579 28
26864 33576 33580 28
26865 33581 33582 28
26866 33581 33583 28
26867 33581 33584 28
26868 33581 33585 28
26869 33586 33587 28
26870 33586 33588 28
26871 33586 33589 28
26872 33586 33590 28
26873 33591 33592 28
26874 33591 33593 28
26875 33591 33594 28
26876 33591 33595 28
26877 33596 33597 28
26878 33596 33598 28
26879 33596 33599 28
26880 33596 33600 28
26881 33601 33602 28
26882 33601 33603 28
26883 33601 33604 28
26884 33601 33605 28
26885 33606 33607 28
26886 33606 33608 28
26887 33606 33609 28
26888 33606 33610 28
26889 33611 33612 28
26890 33611 33613 28
26891 33611 33614 28
26892 33611 33615 28
26893 33616 33617 28
26894 33616 33618 28
26895 33616 33619 28
26896 33616 33620 28
26897 33621 33622 28
26898 33621 33623 28
26899 33621 33624 28
26900 33621 33625 28
26901 33626 33627 28
26902 33626 33628 28
26903 33626 33629 28
26904 33626 33630 28
26905 33631 33632 28
26906 33631 33633 28
26907 33631 33634 28
26908 33631 33635 28
26909 33636 33637 28
26910 33636 33638 28
26911 33636 33639 28
26912 33636 33640 28
26913 33641 33642 28
26914 33641 33643 28
26915 33641 33644 28
26916 33641 33645 28
26917 33646 33647 28
26918 33646 33648 28
26919 33646 33649 28
26920 33646 33650 28
26921 33651 33652 28
26922 33651 33653 28
26923 33651 33654 28
26924 33651 33655 28
26925 33656 33657 28
26926 33656 33658 28
26927 33656 33659 28
26928 33656 33660 28
26929 33661 33662 28
26930 33661 33663 28
26931 33661 33664 28
26932 33661 33665 28
26933 33666 33667 28
26934 33666 33668 28
26935 33666 33669 28
26936 33666 33670 28
26937 33671 33672 28
26938 33671 33673 28
26939 33671 33674 28
26940 33671 33675 28
26941 33676 33677 28
26942 33676 33678 28
26943 33676 33679 28
26944 33676 33680 28
26945 33681 33682 28
26946 33681 33683 28
26947 33681 33684 28
26948 33681 33685 28
26949 33686 33687 28
26950 33686 33688 28
26951 33686 33689 28
26952 33686 33690 28
26953 33691 33692 28
26954 33691 33693 28
26955 33691 33694 28
26956 33691 33695 28
26957 33696 33697 28
26958 33696 33698 28
26959 33696 33699 28
26960 33696 33700 28
26961 33701 33702 28
26962 33701 33703 28
26963 33701 33704 28
26964 33701 33705 28
26965 33706 33707 28
26966 33706 33708 28
26967 33706 33709 28
26968 33706 33710 28
26969 33711 33712 28
26970 33711 33713 28
26971 33711 33714 28
26972 33711 33715 28
26973 33716 33717 28
26974 33716 33718 28
26975 33716 33719 28
26976 33716 33720 28
26977 33721 33722 28
26978 33721 33723 28
26979 33721 33724 28
26980 33721 33725 28
26981 33726 33727 28
26982 33726 33728 28
26983 33726 33729 28
26984 33726 33730 28
26985 33731 33732 28
26986 33731 33733 28
26987 33731 33734 28
26988 33731 33735 28
26989 33736 33737 28
26990 33736 33738 28
26991 33736 33739 28
26992 33736 33740 28
26993 33741 33742 28
26994 33741 33743 28
26995 33741 33744 28
26996 33741 33745 28
26997 33746 33747 28
26998 33746 33748 28
26999 33746 33749 28
27000 33746 33750 28
27001 33751 33752 28
27002 33751 33753 28
27003 33751 33754 28
27004 33751 33755 28
27005 33756 33757 28
27006 33756 33758 28
27007 33756 33759 28
27008 33756 33760 28
27009 33761 33762 28
27010 33761 33763 28
27011 33761 33764 28
27012 33761 33765 28
27013 33766 33767 28
27014 33766 33768 28
27015 33766 33769 28
27016 33766 33770 28
27017 33771 33772 28
27018 33771 33773 28
27019 33771 33774 28
27020 33771 33775 28
27021 33776 33777 28
27022 33776 33778 28
27023 33776 33779 28
27024 33776 33780 28
27025 33781 33782 28
27026 33781 33783 28
27027 33781 33784 28
27028 33781 33785 28
27029 33786 33787 28
27030 33786 33788 28
27031 33786 33789 28
27032 33786 33790 28
27033 33791 33792 28
27034 33791 33793 28
27035 33791 33794 28
27036 33791 33795 28
27037 33796 33797 28
27038 33796 33798 28
27039 33796 33799 28
27040 33796 33800 28
27041 33801 33802 28
27042 33801 33803 28
27043 33801 33804 28
27044 33801 33805 28
27045 33806 33807 28
27046 33806 33808 28
27047 33806 33809 28
27048 33806 33810 28
27049 33811 33812 28
27050 33811 33813 28
27051 33811 33814 28
27052 33811 33815 28
27053 33816 33817 28
27054 33816 33818 28
27055 33816 33819 28
27056 33816 33820 28
27057 33821 33822 28
27058 33821 33823 28
27059 33821 33824 28
27060 33821 33825 28
27061 33826 33827 28
27062 33826 33828 28
27063 33826 33829 28
27064 33826 33830 28
27065 33831 33832 28
27066 33831 33833 28
27067 33831 33834 28
27068 33831 33835 28
27069 33836 33837 28
27070 33836 33838 28
27071 33836 33839 28
27072 33836 33840 28
27073 33841 33842 28
27074 33841 33843 28
27075 33841 33844 28
27076 33841 33845 28
27077 33846 33847 28
27078 33846 33848 28
27079 33846 33849 28
27080 33846 33850 28
27081 33851 33852 28
27082 33851 33853 28
27083 33851 33854 28
27084 33851 33855 28
27085 33856 33857 28
27086 33856 33858 28
27087 33856 33859 28
27088 33856 33860 28
27089 33861 33862 28
27090 33861 33863 28
27091 33861 33864 28
27092 33861 33865 28
27093 33866 33867 28
27094 33866 33868 28
27095 33866 33869 28
27096 33866 33870 28
27097 33871 33872 28
27098 33871 33873 28
27099 33871 33874 28
27100 33871 33875 28
27101 33876 33877 28
27102 33876 33878 28
27103 33876 33879 28
27104 33876 33880 28
27105 33881 33882 28
27106 33881 33883 28
27107 33881 33884 28
27108 33881 33885 28
27109 33886 33887 28
27110 33886 33888 28
27111 33886 33889 28
27112 33886 33890 28
27113 33891 33892 28
27114 33891 33893 28
27115 33891 33894 28
27116 33891 33895 28
27117 33896 33897 28
27118 33896 33898 28
27119 33896 33899 28
27120 33896 33900 28
27121 33901 33902 28
27122 33901 33903 28
27123 33901 33904 28
27124 33901 33905 28
27125 33906 33907 28
27126 33906 33908 28
27127 33906 33909 28
27128 33906 33910 28
27129 33911 33912 28
27130 33911 33913 28
27131 33911 33914 28
27132 33911 33915 28
27133 33916 33917 28
27134 33916 33918 28
27135 33916 33919 28
27136 33916 33920 28
27137 33921 33922 28
27138 33921 33923 28
27139 33921 33924 28
27140 33921 33925 28
27141 33926 33927 28
27142 33926 33928 28
27143 33926 33929 28
27144 33926 33930 28
27145 33931 33932 28
27146 33931 33933 28
27147 33931 33934 28
27148 33931 33935 28
27149 33936 33937 28
27150 33936 33938 28
27151 33936 33939 28
27152 33936 33940 28
27153 33941 33942 28
27154 33941 33943 28
27155 33941 33944 28
27156 33941 33945 28
27157 33946 33947 28
27158 33946 33948 28
27159 33946 33949 28
27160 33946 33950 28
27161 33951 33952 28
27162 33951 33953 28
27163 33951 33954 28
27164 33951 33955 28
27165 33956 33957 28
27166 33956 33958 28
27167 33956 33959 28
27168 33956 33960 28
27169 33961 33962 28
27170 33961 33963 28
27171 33961 33964 28
27172 33961 33965 28
27173 33966 33967 28
27174 33966 33968 28
27175 33966 33969 28
27176 33966 33970 28
27177 33971 33972 28
27178 33971 33973 28
27179 33971 33974 28
27180 33971 33975 28
27181 33976 33977 28
27182 33976 33978 28
27183 33976 33979 28
27184 33976 33980 28
27185 33981 33982 28
27186 33981 33983 28
27187 33981 33984 28
27188 33981 33985 28
27189 33986 33987 28
27190 33986 33988 28
27191 33986 33989 28
27192 33986 33990 28
27193 33991 33992 28
27194 33991 33993 28
27195 33991 33994 28
27196 33991 33995 28
27197 33996 33997 28
27198 33996 33998 28
27199 33996 33999 28
27200 33996 34000 28
27201 34001 34002 28
27202 34001 34003 28
27203 34001 34004 28
27204 34001 34005 28
27205 34006 34007 28
27206 34006 34008 28
27207 34006 34009 28
27208 34006 34010 28
27209 34011 34012 28
27210 34011 34013 28
27211 34011 34014 28
27212 34011 34015 28
27213 34016 34017 28
27214 34016 34018 28
27215 34016 34019 28
27216 34016 34020 28
27217 34021 34022 28
27218 34021 34023 28
27219 34021 34024 28
27220 34021 34025 28
27221 34026 34027 28
27222 34026 34028 28
27223 34026 34029 28
27224 34026 34030 28
27225 34031 34032 28
27226 34031 34033 28
27227 34031 34034 28
27228 34031 34035 28
27229 34036 34037 28
27230 34036 34038 28
27231 34036 34039 28
27232 34036 34040 28
27233 34041 34042 28
27234 34041 34043 28
27235 34041 34044 28
27236 34041 34045 28
27237 34046 34047 28
27238 34046 34048 28
27239 34046 34049 28
27240 34046 34050 28
27241 34051 34052 28
27242 34051 34053 28
27243 34051 34054 28
27244 34051 34055 28
27245 34056 34057 28
27246 34056 34058 28
27247 34056 34059 28
27248 34056 34060 28
27249 34061 34062 28
27250 34061 34063 28
27251 34061 34064 28
27252 34061 34065 28
27253 34066 34067 28
27254 34066 34068 28
27255 34066 34069 28
27256 34066 34070 28
27257 34071 34072 28
27258 34071 34073 28
27259 34071 34074 28
27260 34071 34075 28
27261 34076 34077 28
27262 34076 34078 28
27263 34076 34079 28
27264 34076 34080 28
27265 34081 34082 28
27266 34081 34083 28
27267 34081 34084 28
27268 34081 34085 28
27269 34086 34087 28
27270 34086 34088 28
27271 34086 34089 28
27272 34086 34090 28
27273 34091 34092 28
27274 34091 34093 28
27275 34091 34094 28
27276 34091 34095 28
27277 34096 34097 28
27278 34096 34098 28
27279 34096 34099 28
27280 34096 34100 28
27281 34101 34102 28
27282 34101 34103 28
27283 34101 34104 28
27284 34101 34105 28
27285 34106 34107 28
27286 34106 34108 28
27287 34106 34109 28
27288 34106 34110 28
27289 34111 34112 28
27290 34111 34113 28
27291 34111 34114 28
27292 34111 34115 28
27293 34116 34117 28
27294 34116 34118 28
27295 34116 34119 28
27296 34116 34120 28
27297 34121 34122 28
27298 34121 34123 28
27299 34121 34124 28
27300 34121 34125 28
27301 34126 34127 28
27302 34126 34128 28
27303 34126 34129 28
27304 34126 34130 28
27305 34131 34132 28
27306 34131 34133 28
27307 34131 34134 28
27308 34131 34135 28
27309 34136 34137 28
27310 34136 34138 28
27311 34136 34139 28
27312 34136 34140 28
27313 34141 34142 28
27314 34141 34143 28
27315 34141 34144 28
27316 34141 34145 28
27317 34146 34147 28
27318 34146 34148 28
27319 34146 34149 28
27320 34146 34150 28
27321 34151 34152 28
27322 34151 34153 28
27323 34151 34154 28
27324 34151 34155 28
27325 34156 34157 28
27326 34156 34158 28
27327 34156 34159 28
27328 34156 34160 28
27329 34161 34162 28
27330 34161 34163 28
27331 34161 34164 28
27332 34161 34165 28
27333 34166 34167 28
27334 34166 34168 28
27335 34166 34169 28
27336 34166 34170 28
27337 34171 34172 28
27338 34171 34173 28
27339 34171 34174 28
27340 34171 34175 28
27341 34176 34177 28
27342 34176 34178 28
27343 34176 34179 28
27344 34176 34180 28
27345 34181 34182 28
27346 34181 34183 28
27347 34181 34184 28
27348 34181 34185 28
27349 34186 34187 28
27350 34186 34188 28
27351 34186 34189 28
27352 34186 34190 28
27353 34191 34192 28
27354 34191 34193 28
27355 34191 34194 28
27356 34191 34195 28
27357 34196 34197 28
27358 34196 34198 28
27359 34196 34199 28
27360 34196 34200 28
27361 34201 34202 28
27362 34201 34203 28
27363 34201 34204 28
27364 34201 34205 28
27365 34206 34207 28
27366 34206 34208 28
27367 34206 34209 28
27368 34206 34210 28
27369 34211 34212 28
27370 34211 34213 28
27371 34211 34214 28
27372 34211 34215 28
27373 34216 34217 28
27374 34216 34218 28
27375 34216 34219 28
27376 34216 34220 28
27377 34221 34222 28
27378 34221 34223 28
27379 34221 34224 28
27380 34221 34225 28
27381 34226 34227 28
27382 34226 34228 28
27383 34226 34229 28
27384 34226 34230 28
27385 34231 34232 28
27386 34231 34233 28
27387 34231 34234 28
27388 34231 34235 28
27389 34236 34237 28
27390 34236 34238 28
27391 34236 34239 28
27392 34236 34240 28
27393 34241 34242 28
27394 34241 34243 28
27395 34241 34244 28
27396 34241 34245 28
27397 34246 34247 28
27398 34246 34248 28
27399 34246 34249 28
27400 34246 34250 28
27401 34251 34252 28
27402 34251 34253 28
27403 34251 34254 28
27404 34251 34255 28
27405 34256 34257 28
27406 34256 34258 28
27407 34256 34259 28
27408 34256 34260 28
27409 34261 34262 28
27410 34261 34263 28
27411 34261 34264 28
27412 34261 34265 28
27413 34266 34267 28
27414 34266 34268 28
27415 34266 34269 28
27416 34266 34270 28
27417 34271 34272 28
27418 34271 34273 28
27419 34271 34274 28
27420 34271 34275 28
27421 34276 34277 28
27422 34276 34278 28
27423 34276 34279 28
27424 34276 34280 28
27425 34281 34282 28
27426 34281 34283 28
27427 34281 34284 28
27428 34281 34285 28
27429 34286 34287 28
27430 34286 34288 28
27431 34286 34289 28
27432 34286 34290 28
27433 34291 34292 28
27434 34291 34293 28
27435 34291 34294 28
27436 34291 34295 28
27437 34296 34297 28
27438 34296 34298 28
27439 34296 34299 28
27440 34296 34300 28
27441 34301 34302 28
27442 34301 34303 28
27443 34301 34304 28
27444 34301 34305 28
27445 34306 34307 28
27446 34306 34308 28
27447 34306 34309 28
27448 34306 34310 28
27449 34311 34312 28
27450 34311 34313 28
27451 34311 34314 28
27452 34311 34315 28
27453 34316 34317 28
27454 34316 34318 28
27455 34316 34319 28
27456 34316 34320 28
27457 34321 34322 28
27458 34321 34323 28
27459 34321 34324 28
27460 34321 34325 28
27461 34326 34327 28
27462 34326 34328 28
27463 34326 34329 28
27464 34326 34330 28
27465 34331 34332 28
27466 34331 34333 28
27467 34331 34334 28
27468 34331 34335 28
27469 34336 34337 28
27470 34336 34338 28
27471 34336 34339 28
27472 34336 34340 28
27473 34341 34342 28
27474 34341 34343 28
27475 34341 34344 28
27476 34341 34345 28
27477 34346 34347 28
27478 34346 34348 28
27479 34346 34349 28
27480 34346 34350 28
27481 34351 34352 28
27482 34351 34353 28
27483 34351 34354 28
27484 34351 34355 28
27485 34356 34357 28
27486 34356 34358 28
27487 34356 34359 28
27488 34356 34360 28
27489 34361 34362 28
27490 34361 34363 28
27491 34361 34364 28
27492 34361 34365 28
27493 34366 34367 28
27494 34366 34368 28
27495 34366 34369 28
27496 34366 34370 28
27497 34371 34372 28
27498 34371 34373 28
27499 34371 34374 28
27500 34371 34375 28
27501 34376 34377 28
27502 34376 34378 28
27503 34376 34379 28
27504 34376 34380 28
27505 34381 34382 28
27506 34381 34383 28
27507 34381 34384 28
27508 34381 34385 28
27509 34386 34387 28
27510 34386 34388 28
27511 34386 34389 28
27512 34386 34390 28
27513 34391 34392 28
27514 34391 34393 28
27515 34391 34394 28
27516 34391 34395 28
27517 34396 34397 28
27518 34396 34398 28
27519 34396 34399 28
27520 34396 34400 28
27521 34401 34402 28
27522 34401 34403 28
27523 34401 34404 28
27524 34401 34405 28
27525 34406 34407 28
27526 34406 34408 28
27527 34406 34409 28
27528 34406 34410 28
27529 34411 34412 28
27530 34411 34413 28
27531 34411 34414 28
27532 34411 34415 28
27533 34416 34417 28
27534 34416 34418 28
27535 34416 34419 28
27536 34416 34420 28
27537 34421 34422 28
27538 34421 34423 28
27539 34421 34424 28
27540 34421 34425 28
27541 34426 34427 28
27542 34426 34428 28
27543 34426 34429 28
27544 34426 34430 28
27545 34431 34432 28
27546 34431 34433 28
27547 34431 34434 28
27548 34431 34435 28
27549 34436 34437 28
27550 34436 34438 28
27551 34436 34439 28
27552 34436 34440 28
27553 34441 34442 28
27554 34441 34443 28
27555 34441 34444 28
27556 34441 34445 28
27557 34446 34447 28
27558 34446 34448 28
27559 34446 34449 28
27560 34446 34450 28
27561 34451 34452 28
27562 34451 34453 28
27563 34451 34454 28
27564 34451 34455 28
27565 34456 34457 28
27566 34456 34458 28
27567 34456 34459 28
27568 34456 34460 28
27569 34461 34462 28
27570 34461 34463 28
27571 34461 34464 28
27572 34461 34465 28
27573 34466 34467 28
27574 34466 34468 28
27575 34466 34469 28
27576 34466 34470 28
27577 34471 34472 28
27578 34471 34473 28
27579 34471 34474 28
27580 34471 34475 28
27581 34476 34477 28
27582 34476 34478 28
27583 34476 34479 28
27584 34476 34480 28
27585 34481 34482 28
27586 34481 34483 28
27587 34481 34484 28
27588 34481 34485 28
27589 34486 34487 28
27590 34486 34488 28
27591 34486 34489 28
27592 34486 34490 28
27593 34491 34492 28
27594 34491 34493 28
27595 34491 34494 28
27596 34491 34495 28
27597 34496 34497 28
27598 34496 34498 28
27599 34496 34499 28
27600 34496 34500 28
27601 34501 34502 28
27602 34501 34503 28
27603 34501 34504 28
27604 34501 34505 28
27605 34506 34507 28
27606 34506 34508 28
27607 34506 34509 28
27608 34506 34510 28
27609 34511 34512 28
27610 34511 34513 28
27611 34511 34514 28
27612 34511 34515 28
27613 34516 34517 28
27614 34516 34518 28
27615 34516 34519 28
27616 34516 34520 28
27617 34521 34522 28
27618 34521 34523 28
27619 34521 34524 28
27620 34521 34525 28
27621 34526 34527 28
27622 34526 34528 28
27623 34526 34529 28
27624 34526 34530 28
27625 34531 34532 28
27626 34531 34533 28
27627 34531 34534 28
27628 34531 34535 28
27629 34536 34537 28
27630 34536 34538 28
27631 34536 34539 28
27632 34536 34540 28
27633 34541 34542 28
27634 34541 34543 28
27635 34541 34544 28
27636 34541 34545 28
27637 34546 34547 28
27638 34546 34548 28
27639 34546 34549 28
27640 34546 34550 28
27641 34551 34552 28
27642 34551 34553 28
27643 34551 34554 28
27644 34551 34555 28
27645 34556 34557 28
27646 34556 34558 28
27647 34556 34559 28
27648 34556 34560 28
27649 34561 34562 28
27650 34561 34563 28
27651 34561 34564 28
27652 34561 34565 28
27653 34566 34567 28
27654 34566 34568 28
27655 34566 34569 28
27656 34566 34570 28
27657 34571 34572 28
27658 34571 34573 28
27659 34571 34574 28
27660 34571 34575 28
27661 34576 34577 28
27662 34576 34578 28
27663 34576 34579 28
27664 34576 34580 28
27665 34581 34582 28
27666 34581 34583 28
27667 34581 34584 28
27668 34581 34585 28
27669 34586 34587 28
27670 34586 34588 28
27671 34586 34589 28
27672 34586 34590 28
27673 34591 34592 28
27674 34591 34593 28
27675 34591 34594 28
27676 34591 34595 28
27677 34596 34597 28
27678 34596 34598 28
27679 34596 34599 28
27680 34596 34600 28
27681 34601 34602 28
27682 34601 34603 28
27683 34601 34604 28
27684 34601 34605 28
27685 34606 34607 28
27686 34606 34608 28
27687 34606 34609 28
27688 34606 34610 28
27689 34611 34612 28
27690 34611 34613 28
27691 34611 34614 28
27692 34611 34615 28
27693 34616 34617 28
27694 34616 34618 28
27695 34616 34619 28
27696 34616 34620 28
27697 34621 34622 28
27698 34621 34623 28
27699 34621 34624 28
27700 34621 34625 28
27701 34626 34627 28
27702 34626 34628 28
27703 34626 34629 28
27704 34626 34630 28
27705 34631 34632 28
27706 34631 34633 28
27707 34631 34634 28
27708 34631 34635 28
27709 34636 34637 28
27710 34636 34638 28
27711 34636 34639 28
27712 34636 34640 28
27713 34641 34642 28
27714 34641 34643 28
27715 34641 34644 28
27716 34641 34645 28
27717 34646 34647 28
27718 34646 34648 28
27719 34646 34649 28
27720 34646 34650 28
27721 34651 34652 28
27722 34651 34653 28
27723 34651 34654 28
27724 34651 34655 28
27725 34656 34657 28
27726 34656 34658 28
27727 34656 34659 28
27728 34656 34660 28
27729 34661 34662 28
27730 34661 34663 28
27731 34661 34664 28
27732 34661 34665 28
27733 34666 34667 28
27734 34666 34668 28
27735 34666 34669 28
27736 34666 34670 28
27737 34671 34672 28
27738 34671 34673 28
27739 34671 34674 28
27740 34671 34675 28
27741 34676 34677 28
27742 34676 34678 28
27743 34676 34679 28
27744 34676 34680 28
27745 34681 34682 28
27746 34681 34683 28
27747 34681 34684 28
27748 34681 34685 28
27749 34686 34687 28
27750 34686 34688 28
27751 34686 34689 28
27752 34686 34690 28
27753 34691 34692 28
27754 34691 34693 28
27755 34691 34694 28
27756 34691 34695 28
27757 34696 34697 28
27758 34696 34698 28
27759 34696 34699 28
27760 34696 34700 28
27761 34701 34702 28
27762 34701 34703 28
27763 34701 34704 28
27764 34701 34705 28
27765 34706 34707 28
27766 34706 34708 28
27767 34706 34709 28
27768 34706 34710 28
27769 34711 34712 28
27770 34711 34713 28
27771 34711 34714 28
27772 34711 34715 28
27773 34716 34717 28
27774 34716 34718 28
27775 34716 34719 28
27776 34716 34720 28
27777 34721 34722 28
27778 34721 34723 28
27779 34721 34724 28
27780 34721 34725 28
27781 34726 34727 28
27782 34726 34728 28
27783 34726 34729 28
27784 34726 34730 28
27785 34731 34732 28
27786 34731 34733 28
27787 34731 34734 28
27788 34731 34735 28
27789 34736 34737 28
27790 34736 34738 28
27791 34736 34739 28
27792 34736 34740 28
27793 34741 34742 28
27794 34741 34743 28
27795 34741 34744 28
27796 34741 34745 28
27797 34746 34747 28
27798 34746 34748 28
27799 34746 34749 28
27800 34746 34750 28
27801 34751 34752 28
27802 34751 34753 28
27803 34751 34754 28
27804 34751 34755 28
27805 34756 34757 28
27806 34756 34758 28
27807 34756 34759 28
27808 34756 34760 28
27809 34761 34762 28
27810 34761 34763 28
27811 34761 34764 28
27812 34761 34765 28
27813 34766 34767 28
27814 34766 34768 28
27815 34766 34769 28
27816 34766 34770 28
27817 34771 34772 28
27818 34771 34773 28
27819 34771 34774 28
27820 34771 34775 28
27821 34776 34777 28
27822 34776 34778 28
27823 34776 34779 28
27824 34776 34780 28
27825 34781 34782 28
27826 34781 34783 28
27827 34781 34784 28
27828 34781 34785 28
27829 34786 34787 28
27830 34786 34788 28
27831 34786 34789 28
27832 34786 34790 28
27833 34791 34792 28
27834 34791 34793 28
27835 34791 34794 28
27836 34791 34795 28
27837 34796 34797 28
27838 34796 34798 28
27839 34796 34799 28
27840 34796 34800 28
27841 34801 34802 28
27842 34801 34803 28
27843 34801 34804 28
27844 34801 34805 28
27845 34806 34807 28
27846 34806 34808 28
27847 34806 34809 28
27848 34806 34810 28
27849 34811 34812 28
27850 34811 34813 28
27851 34811 34814 28
27852 34811 34815 28
27853 34816 34817 28
27854 34816 34818 28
27855 34816 34819 28
27856 34816 34820 28
27857 34821 34822 28
27858 34821 34823 28
27859 34821 34824 28
27860 34821 34825 28
27861 34826 34827 28
27862 34826 34828 28
27863 34826 34829 28
27864 34826 34830 28
27865 34831 34832 28
27866 34831 34833 28
27867 34831 34834 28
27868 34831 34835 28
27869 34836 34837 28
27870 34836 34838 28
27871 34836 34839 28
27872 34836 34840 28
27873 34841 34842 28
27874 34841 34843 28
27875 34841 34844 28
27876 34841 34845 28
27877 34846 34847 28
27878 34846 34848 28
27879 34846 34849 28
27880 34846 34850 28
27881 34851 34852 28
27882 34851 34853 28
27883 34851 34854 28
27884 34851 34855 28
27885 34856 34857 28
27886 34856 34858 28
27887 34856 34859 28
27888 34856 34860 28
27889 34861 34862 28
27890 34861 34863 28
27891 34861 34864 28
27892 34861 34865 28
27893 34866 34867 28
27894 34866 34868 28
27895 34866 34869 28
27896 34866 34870 28
27897 34871 34872 28
27898 34871 34873 28
27899 34871 34874 28
27900 34871 34875 28
27901 34876 34877 28
27902 34876 34878 28
27903 34876 34879 28
27904 34876 34880 28
27905 34881 34882 28
27906 34881 34883 28
27907 34881 34884 28
27908 34881 34885 28
27909 34886 34887 28
27910 34886 34888 28
27911 34886 34889 28
27912 34886 34890 28
27913 34891 34892 28
27914 34891 34893 28
27915 34891 34894 28
27916 34891 34895 28
27917 34896 34897 28
27918 34896 34898 28
27919 34896 34899 28
27920 34896 34900 28
27921 34901 34902 28
27922 34901 34903 28
27923 34901 34904 28
27924 34901 34905 28
27925 34906 34907 28
27926 34906 34908 28
27927 34906 34909 28
27928 34906 34910 28
27929 34911 34912 28
27930 34911 34913 28
27931 34911 34914 28
27932 34911 34915 28
27933 34916 34917 28
27934 34916 34918 28
27935 34916 34919 28
27936 34916 34920 28
27937 34921 34922 28
27938 34921 34923 28
27939 34921 34924 28
27940 34921 34925 28
27941 34926 34927 28
27942 34926 34928 28
27943 34926 34929 28
27944 34926 34930 28
27945 34931 34932 28
27946 34931 34933 28
27947 34931 34934 28
27948 34931 34935 28
27949 34936 34937 28
27950 34936 34938 28
27951 34936 34939 28
27952 34936 34940 28
27953 34941 34942 28
27954 34941 34943 28
27955 34941 34944 28
27956 34941 34945 28
27957 34946 34947 28
27958 34946 34948 28
27959 34946 34949 28
27960 34946 34950 28
27961 34951 34952 28
27962 34951 34953 28
27963 34951 34954 28
27964 34951 34955 28
27965 34956 34957 28
27966 34956 34958 28
27967 34956 34959 28
27968 34956 34960 28
27969 34961 34962 28
27970 34961 34963 28
27971 34961 34964 28
27972 34961 34965 28
27973 34966 34967 28
27974 34966 34968 28
27975 34966 34969 28
27976 34966 34970 28
27977 34971 34972 28
27978 34971 34973 28
27979 34971 34974 28
27980 34971 34975 28
27981 34976 34977 28
27982 34976 34978 28
27983 34976 34979 28
27984 34976 34980 28
27985 34981 34982 28
27986 34981 34983 28
27987 34981 34984 28
27988 34981 34985 28
27989 34986 34987 28
27990 34986 34988 28
27991 34986 34989 28
27992 34986 34990 28
27993 34991 34992 28
27994 34991 34993 28
27995 34991 34994 28
27996 34991 34995 28
27997 34996 34997 28
27998 34996 34998 28
27999 34996 34999 28
28000 34996 35000 28
28001 35001 35002 28
28002 35001 35003 28
28003 35001 35004 28
28004 35001 35005 28
28005 35006 35007 28
28006 35006 35008 28
28007 35006 35009 28
28008 35006 35010 28
28009 35011 35012 28
28010 35011 35013 28
28011 35011 35014 28
28012 35011 35015 28
28013 35016 35017 28
28014 35016 35018 28
28015 35016 35019 28
28016 35016 35020 28
28017 35021 35022 28
28018 35021 35023 28
28019 35021 35024 28
28020 35021 35025 28
28021 35026 35027 28
28022 35026 35028 28
28023 35026 35029 28
28024 35026 35030 28
28025 35031 35032 28
28026 35031 35033 28
28027 35031 35034 28
28028 35031 35035 28
28029 35036 35037 28
28030 35036 35038 28
28031 35036 35039 28
28032 35036 35040 28
28033 35041 35042 28
28034 35041 35043 28
28035 35041 35044 28
28036 35041 35045 28
28037 35046 35047 28
28038 35046 35048 28
28039 35046 35049 28
28040 35046 35050 28
28041 35051 35052 28
28042 35051 35053 28
28043 35051 35054 28
28044 35051 35055 28
28045 35056 35057 28
28046 35056 35058 28
28047 35056 35059 28
28048 35056 35060 28
28049 35061 35062 28
28050 35061 35063 28
28051 35061 35064 28
28052 35061 35065 28
28053 35066 35067 28
28054 35066 35068 28
28055 35066 35069 28
28056 35066 35070 28
28057 35071 35072 28
28058 35071 35073 28
28059 35071 35074 28
28060 35071 35075 28
28061 35076 35077 28
28062 35076 35078 28
28063 35076 35079 28
28064 35076 35080 28
28065 35081 35082 28
28066 35081 35083 28
28067 35081 35084 28
28068 35081 35085 28
28069 35086 35087 28
28070 35086 35088 28
28071 35086 35089 28
28072 35086 35090 28
28073 35091 35092 28
28074 35091 35093 28
28075 35091 35094 28
28076 35091 35095 28
28077 35096 35097 28
28078 35096 35098 28
28079 35096 35099 28
28080 35096 35100 28
28081 35101 35102 28
28082 35101 35103 28
28083 35101 35104 28
28084 35101 35105 28
28085 35106 35107 28
28086 35106 35108 28
28087 35106 35109 28
28088 35106 35110 28
28089 35111 35112 28
28090 35111 35113 28
28091 35111 35114 28
28092 35111 35115 28
28093 35116 35117 28
28094 35116 35118 28
28095 35116 35119 28
28096 35116 35120 28
28097 35121 35122 28
28098 35121 35123 28
28099 35121 35124 28
28100 35121 35125 28
28101 35126 35127 28
28102 35126 35128 28
28103 35126 35129 28
28104 35126 35130 28
28105 35131 35132 28
28106 35131 35133 28
28107 35131 35134 28
28108 35131 35135 28
28109 35136 35137 28
28110 35136 35138 28
28111 35136 35139 28
28112 35136 35140 28
28113 35141 35142 28
28114 35141 35143 28
28115 35141 35144 28
28116 35141 35145 28
28117 35146 35147 28
28118 35146 35148 28
28119 35146 35149 28
28120 35146 35150 28
28121 35151 35152 28
28122 35151 35153 28
28123 35151 35154 28
28124 35151 35155 28
28125 35156 35157 28
28126 35156 35158 28
28127 35156 35159 28
28128 35156 35160 28
28129 35161 35162 28
28130 35161 35163 28
28131 35161 35164 28
28132 35161 35165 28
28133 35166 35167 28
28134 35166 35168 28
28135 35166 35169 28
28136 35166 35170 28
28137 35171 35172 28
28138 35171 35173 28
28139 35171 35174 28
28140 35171 35175 28
28141 35176 35177 28
28142 35176 35178 28
28143 35176 35179 28
28144 35176 35180 28
28145 35181 35182 28
28146 35181 35183 28
28147 35181 35184 28
28148 35181 35185 28
28149 35186 35187 28
28150 35186 35188 28
28151 35186 35189 28
28152 35186 35190 28
28153 35191 35192 28
28154 35191 35193 28
28155 35191 35194 28
28156 35191 35195 28
28157 35196 35197 28
28158 35196 35198 28
28159 35196 35199 28
28160 35196 35200 28
28161 35201 35202 28
28162 35201 35203 28
28163 35201 35204 28
28164 35201 35205 28
28165 35206 35207 28
28166 35206 35208 28
28167 35206 35209 28
28168 35206 35210 28
28169 35211 35212 28
28170 35211 35213 28
28171 35211 35214 28
28172 35211 35215 28
28173 35216 35217 28
28174 35216 35218 28
28175 35216 35219 28
28176 35216 35220 28
28177 35221 35222 28
28178 35221 35223 28
28179 35221 35224 28
28180 35221 35225 28
28181 35226 35227 28
28182 35226 35228 28
28183 35226 35229 28
28184 35226 35230 28
28185 35231 35232 28
28186 35231 35233 28
28187 35231 35234 28
28188 35231 35235 28
28189 35236 35237 28
28190 35236 35238 28
28191 35236 35239 28
28192 35236 35240 28
28193 35241 35242 28
28194 35241 35243 28
28195 35241 35244 28
28196 35241 35245 28
28197 35246 35247 28
28198 35246 35248 28
28199 35246 35249 28
28200 35246 35250 28
28201 35251 35252 28
28202 35251 35253 28
28203 35251 35254 28
28204 35251 35255 28
28205 35256 35257 28
28206 35256 35258 28
28207 35256 35259 28
28208 35256 35260 28
28209 35261 35262 28
28210 35261 35263 28
28211 35261 35264 28
28212 35261 35265 28
28213 35266 35267 28
28214 35266 35268 28
28215 35266 35269 28
28216 35266 35270 28
28217 35271 35272 28
28218 35271 35273 28
28219 35271 35274 28
28220 35271 35275 28
28221 35276 35277 28
28222 35276 35278 28
28223 35276 35279 28
28224 35276 35280 28
28225 35281 35282 28
28226 35281 35283 28
28227 35281 35284 28
28228 35281 35285 28
28229 35286 35287 28
28230 35286 35288 28
28231 35286 35289 28
28232 35286 35290 28
28233 35291 35292 28
28234 35291 35293 28
28235 35291 35294 28
28236 35291 35295 28
28237 35296 35297 28
28238 35296 35298 28
28239 35296 35299 28
28240 35296 35300 28
28241 35301 35302 28
28242 35301 35303 28
28243 35301 35304 28
28244 35301 35305 28
28245 35306 35307 28
28246 35306 35308 28
28247 35306 35309 28
28248 35306 35310 28
28249 35311 35312 28
28250 35311 35313 28
28251 35311 35314 28
28252 35311 35315 28
28253 35316 35317 28
28254 35316 35318 28
28255 35316 35319 28
28256 35316 35320 28
28257 35321 35322 28
28258 35321 35323 28
28259 35321 35324 28
28260 35321 35325 28
28261 35326 35327 28
28262 35326 35328 28
28263 35326 35329 28
28264 35326 35330 28
28265 35331 35332 28
28266 35331 35333 28
28267 35331 35334 28
28268 35331 35335 28
28269 35336 35337 28
28270 35336 35338 28
28271 35336 35339 28
28272 35336 35340 28
28273 35341 35342 28
28274 35341 35343 28
28275 35341 35344 28
28276 35341 35345 28
28277 35346 35347 28
28278 35346 35348 28
28279 35346 35349 28
28280 35346 35350 28
28281 35351 35352 28
28282 35351 35353 28
28283 35351 35354 28
28284 35351 35355 28
28285 35356 35357 28
28286 35356 35358 28
28287 35356 35359 28
28288 35356 35360 28
28289 35361 35362 28
28290 35361 35363 28
28291 35361 35364 28
28292 35361 35365 28
28293 35366 35367 28
28294 35366 35368 28
28295 35366 35369 28
28296 35366 35370 28
28297 35371 35372 28
28298 35371 35373 28
28299 35371 35374 28
28300 35371 35375 28
28301 35376 35377 28
28302 35376 35378 28
28303 35376 35379 28
28304 35376 35380 28
28305 35381 35382 28
28306 35381 35383 28
28307 35381 35384 28
28308 35381 35385 28
28309 35386 35387 28
28310 35386 35388 28
28311 35386 35389 28
28312 35386 35390 28
28313 35391 35392 28
28314 35391 35393 28
28315 35391 35394 28
28316 35391 35395 28
28317 35396 35397 28
28318 35396 35398 28
28319 35396 35399 28
28320 35396 35400 28
28321 35401 35402 28
28322 35401 35403 28
28323 35401 35404 28
28324 35401 35405 28
28325 35406 35407 28
28326 35406 35408 28
28327 35406 35409 28
28328 35406 35410 28
28329 35411 35412 28
28330 35411 35413 28
28331 35411 35414 28
28332 35411 35415 28
28333 35416 35417 28
28334 35416 35418 28
28335 35416 35419 28
28336 35416 35420 28
28337 35421 35422 28
28338 35421 35423 28
28339 35421 35424 28
28340 35421 35425 28
28341 35426 35427 28
28342 35426 35428 28
28343 35426 35429 28
28344 35426 35430 28
28345 35431 35432 28
28346 35431 35433 28
28347 35431 35434 28
28348 35431 35435 28
28349 35436 35437 28
28350 35436 35438 28
28351 35436 35439 28
28352 35436 35440 28
28353 35441 35442 28
28354 35441 35443 28
28355 35441 35444 28
28356 35441 35445 28
28357 35446 35447 28
28358 35446 35448 28
28359 35446 35449 28
28360 35446 35450 28
28361 35451 35452 28
28362 35451 35453 28
28363 35451 35454 28
28364 35451 35455 28
28365 35456 35457 28
28366 35456 35458 28
28367 35456 35459 28
28368 35456 35460 28
28369 35461 35462 28
28370 35461 35463 28
28371 35461 35464 28
28372 35461 35465 28
28373 35466 35467 28
28374 35466 35468 28
28375 35466 35469 28
28376 35466 35470 28
28377 35471 35472 28
28378 35471 35473 28
28379 35471 35474 28
28380 35471 35475 28
28381 35476 35477 28
28382 35476 35478 28
28383 35476 35479 28
28384 35476 35480 28
28385 35481 35482 28
28386 35481 35483 28
28387 35481 35484 28
28388 35481 35485 28
28389 35486 35487 28
28390 35486 35488 28
28391 35486 35489 28
28392 35486 35490 28
28393 35491 35492 28
28394 35491 35493 28
28395 35491 35494 28
28396 35491 35495 28
28397 35496 35497 28
28398 35496 35498 28
28399 35496 35499 28
28400 35496 35500 28
28401 35501 35502 28
28402 35501 35503 28
28403 35501 35504 28
28404 35501 35505 28
28405 35506 35507 28
28406 35506 35508 28
28407 35506 35509 28
28408 35506 35510 28
28409 35511 35512 28
28410 35511 35513 28
28411 35511 35514 28
28412 35511 35515 28
28413 35516 35517 28
28414 35516 35518 28
28415 35516 35519 28
28416 35516 35520 28
28417 35521 35522 28
28418 35521 35523 28
28419 35521 35524 28
28420 35521 35525 28
28421 35526 35527 28
28422 35526 35528 28
28423 35526 35529 28
28424 35526 35530 28
28425 35531 35532 28
28426 35531 35533 28
28427 35531 35534 28
28428 35531 35535 28
28429 35536 35537 28
28430 35536 35538 28
28431 35536 35539 28
28432 35536 35540 28
28433 35541 35542 28
28434 35541 35543 28
28435 35541 35544 28
28436 35541 35545 28
28437 35546 35547 28
28438 35546 35548 28
28439 35546 35549 28
28440 35546 35550 28
28441 35551 35552 28
28442 35551 35553 28
28443 35551 35554 28
28444 35551 35555 28
28445 35556 35557 28
28446 35556 35558 28
28447 35556 35559 28
28448 35556 35560 28
28449 35561 35562 28
28450 35561 35563 28
28451 35561 35564 28
28452 35561 35565 28
28453 35566 35567 28
28454 35566 35568 28
28455 35566 35569 28
28456 35566 35570 28
28457 35571 35572 28
28458 35571 35573 28
28459 35571 35574 28
28460 35571 35575 28
28461 35576 35577 28
28462 35576 35578 28
28463 35576 35579 28
28464 35576 35580 28
28465 35581 35582 28
28466 35581 35583 28
28467 35581 35584 28
28468 35581 35585 28
28469 35586 35587 28
28470 35586 35588 28
28471 35586 35589 28
28472 35586 35590 28
28473 35591 35592 28
28474 35591 35593 28
28475 35591 35594 28
28476 35591 35595 28
28477 35596 35597 28
28478 35596 35598 28
28479 35596 35599 28
28480 35596 35600 28
28481 35601 35602 28
28482 35601 35603 28
28483 35601 35604 28
28484 35601 35605 28
28485 35606 35607 28
28486 35606 35608 28
28487 35606 35609 28
28488 35606 35610 28
28489 35611 35612 28
28490 35611 35613 28
28491 35611 35614 28
28492 35611 35615 28
28493 35616 35617 28
28494 35616 35618 28
28495 35616 35619 28
28496 35616 35620 28
28497 35621 35622 28
28498 35621 35623 28
28499 35621 35624 28
28500 35621 35625 28
28501 35626 35627 28
28502 35626 35628 28
28503 35626 35629 28
28504 35626 35630 28
28505 35631 35632 28
28506 35631 35633 28
28507 35631 35634 28
28508 35631 35635 28
28509 35636 35637 28
28510 35636 35638 28
28511 35636 35639 28
28512 35636 35640 28
28513 35641 35642 28
28514 35641 35643 28
28515 35641 35644 28
28516 35641 35645 28
28517 35646 35647 28
28518 35646 35648 28
28519 35646 35649 28
28520 35646 35650 28
28521 35651 35652 28
28522 35651 35653 28
28523 35651 35654 28
28524 35651 35655 28
28525 35656 35657 28
28526 35656 35658 28
28527 35656 35659 28
28528 35656 35660 28
28529 35661 35662 28
28530 35661 35663 28
28531 35661 35664 28
28532 35661 35665 28
28533 35666 35667 28
28534 35666 35668 28
28535 35666 35669 28
28536 35666 35670 28
28537 35671 35672 28
28538 35671 35673 28
28539 35671 35674 28
28540 35671 35675 28
28541 35676 35677 28
28542 35676 35678 28
28543 35676 35679 28
28544 35676 35680 28
28545 35681 35682 28
28546 35681 35683 28
28547 35681 35684 28
28548 35681 35685 28
28549 35686 35687 28
28550 35686 35688 28
28551 35686 35689 28
28552 35686 35690 28
28553 35691 35692 28
28554 35691 35693 28
28555 35691 35694 28
28556 35691 35695 28
28557 35696 35697 28
28558 35696 35698 28
28559 35696 35699 28
28560 35696 35700 28
28561 35701 35702 28
28562 35701 35703 28
28563 35701 35704 28
28564 35701 35705 28
28565 35706 35707 28
28566 35706 35708 28
28567 35706 35709 28
28568 35706 35710 28
28569 35711 35712 28
28570 35711 35713 28
28571 35711 35714 28
28572 35711 35715 28
28573 35716 35717 28
28574 35716 35718 28
28575 35716 35719 28
28576 35716 35720 28
28577 35721 35722 28
28578 35721 35723 28
28579 35721 35724 28
28580 35721 35725 28
28581 35726 35727 28
28582 35726 35728 28
28583 35726 35729 28
28584 35726 35730 28
28585 35731 35732 28
28586 35731 35733 28
28587 35731 35734 28
28588 35731 35735 28
28589 35736 35737 28
28590 35736 35738 28
28591 35736 35739 28
28592 35736 35740 28
28593 35741 35742 28
28594 35741 35743 28
28595 35741 35744 28
28596 35741 35745 28
28597 35746 35747 28
28598 35746 35748 28
28599 35746 35749 28
28600 35746 35750 28
28601 35751 35752 28
28602 35751 35753 28
28603 35751 35754 28
28604 35751 35755 28
28605 35756 35757 28
28606 35756 35758 28
28607 35756 35759 28
28608 35756 35760 28
28609 35761 35762 28
28610 35761 35763 28
28611 35761 35764 28
28612 35761 35765 28
28613 35766 35767 28
28614 35766 35768 28
28615 35766 35769 28
28616 35766 35770 28
28617 35771 35772 28
28618 35771 35773 28
28619 35771 35774 28
28620 35771 35775 28
28621 35776 35777 28
28622 35776 35778 28
28623 35776 35779 28
28624 35776 35780 28
28625 35781 35782 28
28626 35781 35783 28
28627 35781 35784 28
28628 35781 35785 28
28629 35786 35787 28
28630 35786 35788 28
28631 35786 35789 28
28632 35786 35790 28
28633 35791 35792 28
28634 35791 35793 28
28635 35791 35794 28
28636 35791 35795 28
28637 35796 35797 28
28638 35796 35798 28
28639 35796 35799 28
28640 35796 35800 28
28641 35801 35802 28
28642 35801 35803 28
28643 35801 35804 28
28644 35801 35805 28
28645 35806 35807 28
28646 35806 35808 28
28647 35806 35809 28
28648 35806 35810 28
28649 35811 35812 28
28650 35811 35813 28
28651 35811 35814 28
28652 35811 35815 28
28653 35816 35817 28
28654 35816 35818 28
28655 35816 35819 28
28656 35816 35820 28
28657 35821 35822 28
28658 35821 35823 28
28659 35821 35824 28
28660 35821 35825 28
28661 35826 35827 28
28662 35826 35828 28
28663 35826 35829 28
28664 35826 35830 28
28665 35831 35832 28
28666 35831 35833 28
28667 35831 35834 28
28668 35831 35835 28
28669 35836 35837 28
28670 35836 35838 28
28671 35836 35839 28
28672 35836 35840 28
28673 35841 35842 28
28674 35841 35843 28
28675 35841 35844 28
28676 35841 35845 28
28677 35846 35847 28
28678 35846 35848 28
28679 35846 35849 28
28680 35846 35850 28
28681 35851 35852 28
28682 35851 35853 28
28683 35851 35854 28
28684 35851 35855 28
28685 35856 35857 28
28686 35856 35858 28
28687 35856 35859 28
28688 35856 35860 28
28689 35861 35862 28
28690 35861 35863 28
28691 35861 35864 28
28692 35861 35865 28
28693 35866 35867 28
28694 35866 35868 28
28695 35866 35869 28
28696 35866 35870 28
28697 35871 35872 28
28698 35871 35873 28
28699 35871 35874 28
28700 35871 35875 28
28701 35876 35877 28
28702 35876 35878 28
28703 35876 35879 28
28704 35876 35880 28
28705 35881 35882 28
28706 35881 35883 28
28707 35881 35884 28
28708 35881 35885 28
28709 35886 35887 28
28710 35886 35888 28
28711 35886 35889 28
28712 35886 35890 28
28713 35891 35892 28
28714 35891 35893 28
28715 35891 35894 28
28716 35891 35895 28
28717 35896 35897 28
28718 35896 35898 28
28719 35896 35899 28
28720 35896 35900 28
28721 35901 35902 28
28722 35901 35903 28
28723 35901 35904 28
28724 35901 35905 28
28725 35906 35907 28
28726 35906 35908 28
28727 35906 35909 28
28728 35906 35910 28
28729 35911 35912 28
28730 35911 35913 28
28731 35911 35914 28
28732 35911 35915 28
28733 35916 35917 28
28734 35916 35918 28
28735 35916 35919 28
28736 35916 35920 28
28737 35921 35922 28
28738 35921 35923 28
28739 35921 35924 28
28740 35921 35925 28
28741 35926 35927 28
28742 35926 35928 28
28743 35926 35929 28
28744 35926 35930 28
28745 35931 35932 28
28746 35931 35933 28
28747 35931 35934 28
28748 35931 35935 28
28749 35936 35937 28
28750 35936 35938 28
28751 35936 35939 28
28752 35936 35940 28
28753 35941 35942 28
28754 35941 35943 28
28755 35941 35944 28
28756 35941 35945 28
28757 35946 35947 28
28758 35946 35948 28
28759 35946 35949 28
28760 35946 35950 28
28761 35951 35952 28
28762 35951 35953 28
28763 35951 35954 28
28764 35951 35955 28
28765 35956 35957 28
28766 35956 35958 28
28767 35956 35959 28
28768 35956 35960 28
28769 35961 35962 28
28770 35961 35963 28
28771 35961 35964 28
28772 35961 35965 28
28773 35966 35967 28
28774 35966 35968 28
28775 35966 35969 28
28776 35966 35970 28
28777 35971 35972 28
28778 35971 35973 28
28779 35971 35974 28
28780 35971 35975 28
28781 35976 35977 28
28782 35976 35978 28
28783 35976 35979 28
28784 35976 35980 28
28785 35981 35982 28
28786 35981 35983 28
28787 35981 35984 28
28788 35981 35985 28
28789 35986 35987 28
28790 35986 35988 28
28791 35986 35989 28
28792 35986 35990 28
28793 35991 35992 28
28794 35991 35993 28
28795 35991 35994 28
28796 35991 35995 28
28797 35996 35997 28
28798 35996 35998 28
28799 35996 35999 28
28800 35996 36000 28
28801 36001 36002 28
28802 36001 36003 28
28803 36001 36004 28
28804 36001 36005 28
28805 36006 36007 28
28806 36006 36008 28
28807 36006 36009 28
28808 36006 36010 28
28809 36011 36012 28
28810 36011 36013 28
28811 36011 36014 28
28812 36011 36015 28
28813 36016 36017 28
28814 36016 36018 28
28815 36016 36019 28
28816 36016 36020 28
28817 36021 36022 28
28818 36021 36023 28
28819 36021 36024 28
28820 36021 36025 28
28821 36026 36027 28
28822 36026 36028 28
28823 36026 36029 28
28824 36026 36030 28
28825 36031 36032 28
28826 36031 36033 28
28827 36031 36034 28
28828 36031 36035 28
28829 36036 36037 28
28830 36036 36038 28
28831 36036 36039 28
28832 36036 36040 28
28833 36041 36042 28
28834 36041 36043 28
28835 36041 36044 28
28836 36041 36045 28
28837 36046 36047 28
28838 36046 36048 28
28839 36046 36049 28
28840 36046 36050 28
28841 36051 36052 28
28842 36051 36053 28
28843 36051 36054 28
28844 36051 36055 28
28845 36056 36057 28
28846 36056 36058 28
28847 36056 36059 28
28848 36056 36060 28
28849 36061 36062 28
28850 36061 36063 28
28851 36061 36064 28
28852 36061 36065 28
28853 36066 36067 28
28854 36066 36068 28
28855 36066 36069 28
28856 36066 36070 28
28857 36071 36072 28
28858 36071 36073 28
28859 36071 36074 28
28860 36071 36075 28
28861 36076 36077 28
28862 36076 36078 28
28863 36076 36079 28
28864 36076 36080 28
28865 36081 36082 28
28866 36081 36083 28
28867 36081 36084 28
28868 36081 36085 28
28869 36086 36087 28
28870 36086 36088 28
28871 36086 36089 28
28872 36086 36090 28
28873 36091 36092 28
28874 36091 36093 28
28875 36091 36094 28
28876 36091 36095 28
28877 36096 36097 28
28878 36096 36098 28
28879 36096 36099 28
28880 36096 36100 28
28881 36101 36102 28
28882 36101 36103 28
28883 36101 36104 28
28884 36101 36105 28
28885 36106 36107 28
28886 36106 36108 28
28887 36106 36109 28
28888 36106 36110 28
28889 36111 36112 28
28890 36111 36113 28
28891 36111 36114 28
28892 36111 36115 28
28893 36116 36117 28
28894 36116 36118 28
28895 36116 36119 28
28896 36116 36120 28
28897 36121 36122 28
28898 36121 36123 28
28899 36121 36124 28
28900 36121 36125 28
28901 36126 36127 28
28902 36126 36128 28
28903 36126 36129 28
28904 36126 36130 28
28905 36131 36132 28
28906 36131 36133 28
28907 36131 36134 28
28908 36131 36135 28
28909 36136 36137 28
28910 36136 36138 28
28911 36136 36139 28
28912 36136 36140 28
28913 36141 36142 28
28914 36141 36143 28
28915 36141 36144 28
28916 36141 36145 28
28917 36146 36147 28
28918 36146 36148 28
28919 36146 36149 28
28920 36146 36150 28
28921 36151 36152 28
28922 36151 36153 28
28923 36151 36154 28
28924 36151 36155 28
28925 36156 36157 28
28926 36156 36158 28
28927 36156 36159 28
28928 36156 36160 28
28929 36161 36162 28
28930 36161 36163 28
28931 36161 36164 28
28932 36161 36165 28
28933 36166 36167 28
28934 36166 36168 28
28935 36166 36169 28
28936 36166 36170 28
28937 36171 36172 28
28938 36171 36173 28
28939 36171 36174 28
28940 36171 36175 28
28941 36176 36177 28
28942 36176 36178 28
28943 36176 36179 28
28944 36176 36180 28
28945 36181 36182 28
28946 36181 36183 28
28947 36181 36184 28
28948 36181 36185 28
28949 36186 36187 28
28950 36186 36188 28
28951 36186 36189 28
28952 36186 36190 28
28953 36191 36192 28
28954 36191 36193 28
28955 36191 36194 28
28956 36191 36195 28
28957 36196 36197 28
28958 36196 36198 28
28959 36196 36199 28
28960 36196 36200 28
28961 36201 36202 28
28962 36201 36203 28
28963 36201 36204 28
28964 36201 36205 28
28965 36206 36207 28
28966 36206 36208 28
28967 36206 36209 28
28968 36206 36210 28
28969 36211 36212 28
28970 36211 36213 28
28971 36211 36214 28
28972 36211 36215 28
28973 36216 36217 28
28974 36216 36218 28
28975 36216 36219 28
28976 36216 36220 28
28977 36221 36222 28
28978 36221 36223 28
28979 36221 36224 28
28980 36221 36225 28
28981 36226 36227 28
28982 36226 36228 28
28983 36226 36229 28
28984 36226 36230 28
28985 36231 36232 28
28986 36231 36233 28
28987 36231 36234 28
28988 36231 36235 28
28989 36236 36237 28
28990 36236 36238 28
28991 36236 36239 28
28992 36236 36240 28
28993 36241 36242 28
28994 36241 36243 28
28995 36241 36244 28
28996 36241 36245 28
28997 36246 36247 28
28998 36246 36248 28
28999 36246 36249 28
29000 36246 36250 28
29001 36251 36252 28
29002 36251 36253 28
29003 36251 36254 28
29004 36251 36255 28
29005 36256 36257 28
29006 36256 36258 28
29007 36256 36259 28
29008 36256 36260 28
29009 36261 36262 28
29010 36261 36263 28
29011 36261 36264 28
29012 36261 36265 28
29013 36266 36267 28
29014 36266 36268 28
29015 36266 36269 28
29016 36266 36270 28
29017 36271 36272 28
29018 36271 36273 28
29019 36271 36274 28
29020 36271 36275 28
29021 36276 36277 28
29022 36276 36278 28
29023 36276 36279 28
29024 36276 36280 28
29025 36281 36282 28
29026 36281 36283 28
29027 36281 36284 28
29028 36281 36285 28
29029 36286 36287 28
29030 36286 36288 28
29031 36286 36289 28
29032 36286 36290 28
29033 36291 36292 28
29034 36291 36293 28
29035 36291 36294 28
29036 36291 36295 28
29037 36296 36297 28
29038 36296 36298 28
29039 36296 36299 28
29040 36296 36300 28
29041 36301 36302 28
29042 36301 36303 28
29043 36301 36304 28
29044 36301 36305 28
29045 36306 36307 28
29046 36306 36308 28
29047 36306 36309 28
29048 36306 36310 28
29049 36311 36312 28
29050 36311 36313 28
29051 36311 36314 28
29052 36311 36315 28
29053 36316 36317 28
29054 36316 36318 28
29055 36316 36319 28
29056 36316 36320 28
29057 36321 36322 28
29058 36321 36323 28
29059 36321 36324 28
29060 36321 36325 28
29061 36326 36327 28
29062 36326 36328 28
29063 36326 36329 28
29064 36326 36330 28
29065 36331 36332 28
29066 36331 36333 28
29067 36331 36334 28
29068 36331 36335 28
29069 36336 36337 28
29070 36336 36338 28
29071 36336 36339 28
29072 36336 36340 28
29073 36341 36342 28
29074 36341 36343 28
29075 36341 36344 28
29076 36341 36345 28
29077 36346 36347 28
29078 36346 36348 28
29079 36346 36349 28
29080 36346 36350 28
29081 36351 36352 28
29082 36351 36353 28
29083 36351 36354 28
29084 36351 36355 28
29085 36356 36357 28
29086 36356 36358 28
29087 36356 36359 28
29088 36356 36360 28
29089 36361 36362 28
29090 36361 36363 28
29091 36361 36364 28
29092 36361 36365 28
29093 36366 36367 28
29094 36366 36368 28
29095 36366 36369 28
29096 36366 36370 28
29097 36371 36372 28
29098 36371 36373 28
29099 36371 36374 28
29100 36371 36375 28
29101 36376 36377 28
29102 36376 36378 28
29103 36376 36379 28
29104 36376 36380 28
29105 36381 36382 28
29106 36381 36383 28
29107 36381 36384 28
29108 36381 36385 28
29109 36386 36387 28
29110 36386 36388 28
29111 36386 36389 28
29112 36386 36390 28
29113 36391 36392 28
29114 36391 36393 28
29115 36391 36394 28
29116 36391 36395 28
29117 36396 36397 28
29118 36396 36398 28
29119 36396 36399 28
29120 36396 36400 28
29121 36401 36402 28
29122 36401 36403 28
29123 36401 36404 28
29124 36401 36405 28
29125 36406 36407 28
29126 36406 36408 28
29127 36406 36409 28
29128 36406 36410 28
29129 36411 36412 28
29130 36411 36413 28
29131 36411 36414 28
29132 36411 36415 28
29133 36416 36417 28
29134 36416 36418 28
29135 36416 36419 28
29136 36416 36420 28
29137 36421 36422 28
29138 36421 36423 28
29139 36421 36424 28
29140 36421 36425 28
29141 36426 36427 28
29142 36426 36428 28
29143 36426 36429 28
29144 36426 36430 28
29145 36431 36432 28
29146 36431 36433 28
29147 36431 36434 28
29148 36431 36435 28
29149 36436 36437 28
29150 36436 36438 28
29151 36436 36439 28
29152 36436 36440 28
29153 36441 36442 28
29154 36441 36443 28
29155 36441 36444 28
29156 36441 36445 28
29157 36446 36447 28
29158 36446 36448 28
29159 36446 36449 28
29160 36446 36450 28
29161 36451 36452 28
29162 36451 36453 28
29163 36451 36454 28
29164 36451 36455 28
29165 36456 36457 28
29166 36456 36458 28
29167 36456 36459 28
29168 36456 36460 28
29169 36461 36462 28
29170 36461 36463 28
29171 36461 36464 28
29172 36461 36465 28
29173 36466 36467 28
29174 36466 36468 28
29175 36466 36469 28
29176 36466 36470 28
29177 36471 36472 28
29178 36471 36473 28
29179 36471 36474 28
29180 36471 36475 28
29181 36476 36477 28
29182 36476 36478 28
29183 36476 36479 28
29184 36476 36480 28
29185 36481 36482 28
29186 36481 36483 28
29187 36481 36484 28
29188 36481 36485 28
29189 36486 36487 28
29190 36486 36488 28
29191 36486 36489 28
29192 36486 36490 28
29193 36491 36492 28
29194 36491 36493 28
29195 36491 36494 28
29196 36491 36495 28
29197 36496 36497 28
29198 36496 36498 28
29199 36496 36499 28
29200 36496 36500 28
29201 36501 36502 28
29202 36501 36503 28
29203 36501 36504 28
29204 36501 36505 28
29205 36506 36507 28
29206 36506 36508 28
29207 36506 36509 28
29208 36506 36510 28
29209 36511 36512 28
29210 36511 36513 28
29211 36511 36514 28
29212 36511 36515 28
29213 36516 36517 28
29214 36516 36518 28
29215 36516 36519 28
29216 36516 36520 28
29217 36521 36522 28
29218 36521 36523 28
29219 36521 36524 28
29220 36521 36525 28
29221 36526 36527 28
29222 36526 36528 28
29223 36526 36529 28
29224 36526 36530 28
29225 36531 36532 28
29226 36531 36533 28
29227 36531 36534 28
29228 36531 36535 28
29229 36536 36537 28
29230 36536 36538 28
29231 36536 36539 28
29232 36536 36540 28
29233 36541 36542 28
29234 36541 36543 28
29235 36541 36544 28
29236 36541 36545 28
29237 36546 36547 28
29238 36546 36548 28
29239 36546 36549 28
29240 36546 36550 28
29241 36551 36552 28
29242 36551 36553 28
29243 36551 36554 28
29244 36551 36555 28
29245 36556 36557 28
29246 36556 36558 28
29247 36556 36559 28
29248 36556 36560 28
29249 36561 36562 28
29250 36561 36563 28
29251 36561 36564 28
29252 36561 36565 28
29253 36566 36567 28
29254 36566 36568 28
29255 36566 36569 28
29256 36566 36570 28
29257 36571 36572 28
29258 36571 36573 28
29259 36571 36574 28
29260 36571 36575 28
29261 36576 36577 28
29262 36576 36578 28
29263 36576 36579 28
29264 36576 36580 28
29265 36581 36582 28
29266 36581 36583 28
29267 36581 36584 28
29268 36581 36585 28
29269 36586 36587 28
29270 36586 36588 28
29271 36586 36589 28
29272 36586 36590 28
29273 36591 36592 28
29274 36591 36593 28
29275 36591 36594 28
29276 36591 36595 28
29277 36596 36597 28
29278 36596 36598 28
29279 36596 36599 28
29280 36596 36600 28
29281 36601 36602 28
29282 36601 36603 28
29283 36601 36604 28
29284 36601 36605 28
29285 36606 36607 28
29286 36606 36608 28
29287 36606 36609 28
29288 36606 36610 28
29289 36611 36612 28
29290 36611 36613 28
29291 36611 36614 28
29292 36611 36615 28
29293 36616 36617 28
29294 36616 36618 28
29295 36616 36619 28
29296 36616 36620 28
29297 36621 36622 28
29298 36621 36623 28
29299 36621 36624 28
29300 36621 36625 28
29301 36626 36627 28
29302 36626 36628 28
29303 36626 36629 28
29304 36626 36630 28
29305 36631 36632 28
29306 36631 36633 28
29307 36631 36634 28
29308 36631 36635 28
29309 36636 36637 28
29310 36636 36638 28
29311 36636 36639 28
29312 36636 36640 28
29313 36641 36642 28
29314 36641 36643 28
29315 36641 36644 28
29316 36641 36645 28
29317 36646 36647 28
29318 36646 36648 28
29319 36646 36649 28
29320 36646 36650 28
29321 36651 36652 28
29322 36651 36653 28
29323 36651 36654 28
29324 36651 36655 28
29325 36656 36657 28
29326 36656 36658 28
29327 36656 36659 28
29328 36656 36660 28
29329 36661 36662 28
29330 36661 36663 28
29331 36661 36664 28
29332 36661 36665 28
29333 36666 36667 28
29334 36666 36668 28
29335 36666 36669 28
29336 36666 36670 28
29337 36671 36672 28
29338 36671 36673 28
29339 36671 36674 28
29340 36671 36675 28
29341 36676 36677 28
29342 36676 36678 28
29343 36676 36679 28
29344 36676 36680 28
29345 36681 36682 28
29346 36681 36683 28
29347 36681 36684 28
29348 36681 36685 28
29349 36686 36687 28
29350 36686 36688 28
29351 36686 36689 28
29352 36686 36690 28
29353 36691 36692 28
29354 36691 36693 28
29355 36691 36694 28
29356 36691 36695 28
29357 36696 36697 28
29358 36696 36698 28
29359 36696 36699 28
29360 36696 36700 28
29361 36701 36702 28
29362 36701 36703 28
29363 36701 36704 28
29364 36701 36705 28
29365 36706 36707 28
29366 36706 36708 28
29367 36706 36709 28
29368 36706 36710 28
29369 36711 36712 28
29370 36711 36713 28
29371 36711 36714 28
29372 36711 36715 28
29373 36716 36717 28
29374 36716 36718 28
29375 36716 36719 28
29376 36716 36720 28
29377 36721 36722 28
29378 36721 36723 28
29379 36721 36724 28
29380 36721 36725 28
29381 36726 36727 28
29382 36726 36728 28
29383 36726 36729 28
29384 36726 36730 28
29385 36731 36732 28
29386 36731 36733 28
29387 36731 36734 28
29388 36731 36735 28
29389 36736 36737 28
29390 36736 36738 28
29391 36736 36739 28
29392 36736 36740 28
29393 36741 36742 28
29394 36741 36743 28
29395 36741 36744 28
29396 36741 36745 28
29397 36746 36747 28
29398 36746 36748 28
29399 36746 36749 28
29400 36746 36750 28
29401 36751 36752 28
29402 36751 36753 28
29403 36751 36754 28
29404 36751 36755 28
29405 36756 36757 28
29406 36756 36758 28
29407 36756 36759 28
29408 36756 36760 28
29409 36761 36762 28
29410 36761 36763 28
29411 36761 36764 28
29412 36761 36765 28
29413 36766 36767 28
29414 36766 36768 28
29415 36766 36769 28
29416 36766 36770 28
29417 36771 36772 28
29418 36771 36773 28
29419 36771 36774 28
29420 36771 36775 28
29421 36776 36777 28
29422 36776 36778 28
29423 36776 36779 28
29424 36776 36780 28
29425 36781 36782 28
29426 36781 36783 28
29427 36781 36784 28
29428 36781 36785 28
29429 36786 36787 28
29430 36786 36788 28
29431 36786 36789 28
29432 36786 36790 28
29433 36791 36792 28
29434 36791 36793 28
29435 36791 36794 28
29436 36791 36795 28
29437 36796 36797 28
29438 36796 36798 28
29439 36796 36799 28
29440 36796 36800 28
29441 36801 36802 28
29442 36801 36803 28
29443 36801 36804 28
29444 36801 36805 28
29445 36806 36807 28
29446 36806 36808 28
29447 36806 36809 28
29448 36806 36810 28
29449 36811 36812 28
29450 36811 36813 28
29451 36811 36814 28
29452 36811 36815 28
29453 36816 36817 28
29454 36816 36818 28
29455 36816 36819 28
29456 36816 36820 28
29457 36821 36822 28
29458 36821 36823 28
29459 36821 36824 28
29460 36821 36825 28
29461 36826 36827 28
29462 36826 36828 28
29463 36826 36829 28
29464 36826 36830 28
29465 36831 36832 28
29466 36831 36833 28
29467 36831 36834 28
29468 36831 36835 28
29469 36836 36837 28
29470 36836 36838 28
29471 36836 36839 28
29472 36836 36840 28
29473 36841 36842 28
29474 36841 36843 28
29475 36841 36844 28
29476 36841 36845 28
29477 36846 36847 28
29478 36846 36848 28
29479 36846 36849 28
29480 36846 36850 28
29481 36851 36852 28
29482 36851 36853 28
29483 36851 36854 28
29484 36851 36855 28
29485 36856 36857 28
29486 36856 36858 28
29487 36856 36859 28
29488 36856 36860 28
29489 36861 36862 28
29490 36861 36863 28
29491 36861 36864 28
29492 36861 36865 28
29493 36866 36867 28
29494 36866 36868 28
29495 36866 36869 28
29496 36866 36870 28
29497 36871 36872 28
29498 36871 36873 28
29499 36871 36874 28
29500 36871 36875 28
29501 36876 36877 28
29502 36876 36878 28
29503 36876 36879 28
29504 36876 36880 28
29505 36881 36882 28
29506 36881 36883 28
29507 36881 36884 28
29508 36881 36885 28
29509 36886 36887 28
29510 36886 36888 28
29511 36886 36889 28
29512 36886 36890 28
29513 36891 36892 28
29514 36891 36893 28
29515 36891 36894 28
29516 36891 36895 28
29517 36896 36897 28
29518 36896 36898 28
29519 36896 36899 28
29520 36896 36900 28
29521 36901 36902 28
29522 36901 36903 28
29523 36901 36904 28
29524 36901 36905 28
29525 36906 36907 28
29526 36906 36908 28
29527 36906 36909 28
29528 36906 36910 28
29529 36911 36912 28
29530 36911 36913 28
29531 36911 36914 28
29532 36911 36915 28
29533 36916 36917 28
29534 36916 36918 28
29535 36916 36919 28
29536 36916 36920 28
29537 36921 36922 28
29538 36921 36923 28
29539 36921 36924 28
29540 36921 36925 28
29541 36926 36927 28
29542 36926 36928 28
29543 36926 36929 28
29544 36926 36930 28
29545 36931 36932 28
29546 36931 36933 28
29547 36931 36934 28
29548 36931 36935 28
29549 36936 36937 28
29550 36936 36938 28
29551 36936 36939 28
29552 36936 36940 28
29553 36941 36942 28
29554 36941 36943 28
29555 36941 36944 28
29556 36941 36945 28
29557 36946 36947 28
29558 36946 36948 28
29559 36946 36949 28
29560 36946 36950 28
29561 36951 36952 28
29562 36951 36953 28
29563 36951 36954 28
29564 36951 36955 28
29565 36956 36957 28
29566 36956 36958 28
29567 36956 36959 28
29568 36956 36960 28
29569 36961 36962 28
29570 36961 36963 28
29571 36961 36964 28
29572 36961 36965 28
29573 36966 36967 28
29574 36966 36968 28
29575 36966 36969 28
29576 36966 36970 28
29577 36971 36972 28
29578 36971 36973 28
29579 36971 36974 28
29580 36971 36975 28
29581 36976 36977 28
29582 36976 36978 28
29583 36976 36979 28
29584 36976 36980 28
29585 36981 36982 28
29586 36981 36983 28
29587 36981 36984 28
29588 36981 36985 28
29589 36986 36987 28
29590 36986 36988 28
29591 36986 36989 28
29592 36986 36990 28
29593 36991 36992 28
29594 36991 36993 28
29595 36991 36994 28
29596 36991 36995 28
29597 36996 36997 28
29598 36996 36998 28
29599 36996 36999 28
29600 36996 37000 28
29601 37001 37002 28
29602 37001 37003 28
29603 37001 37004 28
29604 37001 37005 28
29605 37006 37007 28
29606 37006 37008 28
29607 37006 37009 28
29608 37006 37010 28
29609 37011 37012 28
29610 37011 37013 28
29611 37011 37014 28
29612 37011 37015 28
29613 37016 37017 28
29614 37016 37018 28
29615 37016 37019 28
29616 37016 37020 28
29617 37021 37022 28
29618 37021 37023 28
29619 37021 37024 28
29620 37021 37025 28
29621 37026 37027 28
29622 37026 37028 28
29623 37026 37029 28
29624 37026 37030 28
29625 37031 37032 28
29626 37031 37033 28
29627 37031 37034 28
29628 37031 37035 28
29629 37036 37037 28
29630 37036 37038 28
29631 37036 37039 28
29632 37036 37040 28
29633 37041 37042 28
29634 37041 37043 28
29635 37041 37044 28
29636 37041 37045 28
29637 37046 37047 28
29638 37046 37048 28
29639 37046 37049 28
29640 37046 37050 28
29641 37051 37052 28
29642 37051 37053 28
29643 37051 37054 28
29644 37051 37055 28
29645 37056 37057 28
29646 37056 37058 28
29647 37056 37059 28
29648 37056 37060 28
29649 37061 37062 28
29650 37061 37063 28
29651 37061 37064 28
29652 37061 37065 28
29653 37066 37067 28
29654 37066 37068 28
29655 37066 37069 28
29656 37066 37070 28
29657 37071 37072 28
29658 37071 37073 28
29659 37071 37074 28
29660 37071 37075 28
29661 37076 37077 28
29662 37076 37078 28
29663 37076 37079 28
29664 37076 37080 28
29665 37081 37082 28
29666 37081 37083 28
29667 37081 37084 28
29668 37081 37085 28
29669 37086 37087 28
29670 37086 37088 28
29671 37086 37089 28
29672 37086 37090 28
29673 37091 37092 28
29674 37091 37093 28
29675 37091 37094 28
29676 37091 37095 28
29677 37096 37097 28
29678 37096 37098 28
29679 37096 37099 28
29680 37096 37100 28
29681 37101 37102 28
29682 37101 37103 28
29683 37101 37104 28
29684 37101 37105 28
29685 37106 37107 28
29686 37106 37108 28
29687 37106 37109 28
29688 37106 37110 28
29689 37111 37112 28
29690 37111 37113 28
29691 37111 37114 28
29692 37111 37115 28
29693 37116 37117 28
29694 37116 37118 28
29695 37116 37119 28
29696 37116 37120 28
29697 37121 37122 28
29698 37121 37123 28
29699 37121 37124 28
29700 37121 37125 28
29701 37126 37127 28
29702 37126 37128 28
29703 37126 37129 28
29704 37126 37130 28
29705 37131 37132 28
29706 37131 37133 28
29707 37131 37134 28
29708 37131 37135 28
29709 37136 37137 28
29710 37136 37138 28
29711 37136 37139 28
29712 37136 37140 28
29713 37141 37142 28
29714 37141 37143 28
29715 37141 37144 28
29716 37141 37145 28
29717 37146 37147 28
29718 37146 37148 28
29719 37146 37149 28
29720 37146 37150 28
29721 37151 37152 28
29722 37151 37153 28
29723 37151 37154 28
29724 37151 37155 28
29725 37156 37157 28
29726 37156 37158 28
29727 37156 37159 28
29728 37156 37160 28
29729 37161 37162 28
29730 37161 37163 28
29731 37161 37164 28
29732 37161 37165 28
29733 37166 37167 28
29734 37166 37168 28
29735 37166 37169 28
29736 37166 37170 28
29737 37171 37172 28
29738 37171 37173 28
29739 37171 37174 28
29740 37171 37175 28
29741 37176 37177 28
29742 37176 37178 28
29743 37176 37179 28
29744 37176 37180 28
29745 37181 37182 28
29746 37181 37183 28
29747 37181 37184 28
29748 37181 37185 28
29749 37186 37187 28
29750 37186 37188 28
29751 37186 37189 28
29752 37186 37190 28
29753 37191 37192 28
29754 37191 37193 28
29755 37191 37194 28
29756 37191 37195 28
29757 37196 37197 28
29758 37196 37198 28
29759 37196 37199 28
29760 37196 37200 28
29761 37201 37202 28
29762 37201 37203 28
29763 37201 37204 28
29764 37201 37205 28
29765 37206 37207 28
29766 37206 37208 28
29767 37206 37209 28
29768 37206 37210 28
29769 37211 37212 28
29770 37211 37213 28
29771 37211 37214 28
29772 37211 37215 28
29773 37216 37217 28
29774 37216 37218 28
29775 37216 37219 28
29776 37216 37220 28
29777 37221 37222 28
29778 37221 37223 28
29779 37221 37224 28
29780 37221 37225 28
29781 37226 37227 28
29782 37226 37228 28
29783 37226 37229 28
29784 37226 37230 28
29785 37231 37232 28
29786 37231 37233 28
29787 37231 37234 28
29788 37231 37235 28
29789 37236 37237 28
29790 37236 37238 28
29791 37236 37239 28
29792 37236 37240 28
29793 37241 37242 28
29794 37241 37243 28
29795 37241 37244 28
29796 37241 37245 28
29797 37246 37247 28
29798 37246 37248 28
29799 37246 37249 28
29800 37246 37250 28
29801 37251 37252 28
29802 37251 37253 28
29803 37251 37254 28
29804 37251 37255 28
29805 37256 37257 28
29806 37256 37258 28
29807 37256 37259 28
29808 37256 37260 28
29809 37261 37262 28
29810 37261 37263 28
29811 37261 37264 28
29812 37261 37265 28
29813 37266 37267 28
29814 37266 37268 28
29815 37266 37269 28
29816 37266 37270 28
29817 37271 37272 28
29818 37271 37273 28
29819 37271 37274 28
29820 37271 37275 28
29821 37276 37277 28
29822 37276 37278 28
29823 37276 37279 28
29824 37276 37280 28
29825 37281 37282 28
29826 37281 37283 28
29827 37281 37284 28
29828 37281 37285 28
29829 37286 37287 28
29830 37286 37288 28
29831 37286 37289 28
29832 37286 37290 28
29833 37291 37292 28
29834 37291 37293 28
29835 37291 37294 28
29836 37291 37295 28
29837 37296 37297 28
29838 37296 37298 28
29839 37296 37299 28
29840 37296 37300 28
29841 37301 37302 28
29842 37301 37303 28
29843 37301 37304 28
29844 37301 37305 28
29845 37306 37307 28
29846 37306 37308 28
29847 37306 37309 28
29848 37306 37310 28
29849 37311 37312 28
29850 37311 37313 28
29851 37311 37314 28
29852 37311 37315 28
29853 37316 37317 28
29854 37316 37318 28
29855 37316 37319 28
29856 37316 37320 28
29857 37321 37322 28
29858 37321 37323 28
29859 37321 37324 28
29860 37321 37325 28
29861 37326 37327 28
29862 37326 37328 28
29863 37326 37329 28
29864 37326 37330 28
29865 37331 37332 28
29866 37331 37333 28
29867 37331 37334 28
29868 37331 37335 28
29869 37336 37337 28
29870 37336 37338 28
29871 37336 37339 28
29872 37336 37340 28
29873 37341 37342 28
29874 37341 37343 28
29875 37341 37344 28
29876 37341 37345 28
29877 37346 37347 28
29878 37346 37348 28
29879 37346 37349 28
29880 37346 37350 28
29881 37351 37352 28
29882 37351 37353 28
29883 37351 37354 28
29884 37351 37355 28
29885 37356 37357 28
29886 37356 37358 28
29887 37356 37359 28
29888 37356 37360 28
29889 37361 37362 28
29890 37361 37363 28
29891 37361 37364 28
29892 37361 37365 28
29893 37366 37367 28
29894 37366 37368 28
29895 37366 37369 28
29896 37366 37370 28
29897 37371 37372 28
29898 37371 37373 28
29899 37371 37374 28
29900 37371 37375 28
29901 37376 37377 28
29902 37376 37378 28
29903 37376 37379 28
29904 37376 37380 28
29905 37381 37382 28
29906 37381 37383 28
29907 37381 37384 28
29908 37381 37385 28
29909 37386 37387 28
29910 37386 37388 28
29911 37386 37389 28
29912 37386 37390 28
29913 37391 37392 28
29914 37391 37393 28
29915 37391 37394 28
29916 37391 37395 28
29917 37396 37397 28
29918 37396 37398 28
29919 37396 37399 28
29920 37396 37400 28
29921 37401 37402 28
29922 37401 37403 28
29923 37401 37404 28
29924 37401 37405 28
29925 37406 37407 28
29926 37406 37408 28
29927 37406 37409 28
29928 37406 37410 28
29929 37411 37412 28
29930 37411 37413 28
29931 37411 37414 28
29932 37411 37415 28
29933 37416 37417 28
29934 37416 37418 28
29935 37416 37419 28
29936 37416 37420 28
29937 37421 37422 28
29938 37421 37423 28
29939 37421 37424 28
29940 37421 37425 28
29941 37426 37427 28
29942 37426 37428 28
29943 37426 37429 28
29944 37426 37430 28
29945 37431 37432 28
29946 37431 37433 28
29947 37431 37434 28
29948 37431 37435 28
29949 37436 37437 28
29950 37436 37438 28
29951 37436 37439 28
29952 37436 37440 28
29953 37441 37442 28
29954 37441 37443 28
29955 37441 37444 28
29956 37441 37445 28
29957 37446 37447 28
29958 37446 37448 28
29959 37446 37449 28
29960 37446 37450 28
29961 37451 37452 28
29962 37451 37453 28
29963 37451 37454 28
29964 37451 37455 28
29965 37456 37457 28
29966 37456 37458 28
29967 37456 37459 28
29968 37456 37460 28
29969 37461 37462 28
29970 37461 37463 28
29971 37461 37464 28
29972 37461 37465 28
29973 37466 37467 28
29974 37466 37468 28
29975 37466 37469 28
29976 37466 37470 28
29977 37471 37472 28
29978 37471 37473 28
29979 37471 37474 28
29980 37471 37475 28
29981 37476 37477 28
29982 37476 37478 28
29983 37476 37479 28
29984 37476 37480 28
29985 37481 37482 28
29986 37481 37483 28
29987 37481 37484 28
29988 37481 37485 28
29989 37486 37487 28
29990 37486 37488 28
29991 37486 37489 28
29992 37486 37490 28
29993 37491 37492 28
29994 37491 37493 28
29995 37491 37494 28
29996 37491 37495 28
29997 37496 37497 28
29998 37496 37498 28
29999 37496 37499 28
30000 37496 37500 28
@<TRIPOS>CRYSIN
110.83359910061995 110.83359910061995 110.83359910061995 90 90 90 1 1
